10324368
  -OEChem-05242006132D

 82 84  0     1  0  0  0  0  0999 V2000
    6.6666    0.7209    0.0000 O   0  0  0  0  0  0  0  0  0  0  0  0
    5.8660   -0.3810    0.0000 O   0  0  0  0  0  0  0  0  0  0  0  0
    8.3650    3.9014    0.0000 O   0  0  0  0  0  0  0  0  0  0  0  0
    4.8660   -3.8452    0.0000 O   0  0  0  0  0  0  0  0  0  0  0  0
    9.9612    1.7914    0.0000 O   0  0  0  0  0  0  0  0  0  0  0  0
    7.3660   -1.2471    0.0000 N   0  0  0  0  0  0  0  0  0  0  0  0
    8.3139    1.2562    0.0000 N   0  0  0  0  0  0  0  0  0  0  0  0
    4.8660   -2.1131    0.0000 N   0  0  0  0  0  0  0  0  0  0  0  0
    3.3660   -2.9791    0.0000 N   0  0  0  0  0  0  0  0  0  0  0  0
   10.3213    3.4856    0.0000 N   0  0  0  0  0  0  0  0  0  0  0  0
    8.9049   -0.7471    0.0000 C   0  0  1  0  0  0  0  0  0  0  0  0
    9.7714   -1.2471    0.0000 C   0  0  0  0  0  0  0  0  0  0  0  0
    8.9049   -1.7471    0.0000 C   0  0  1  0  0  0  0  0  0  0  0  0
    7.9538   -0.4381    0.0000 C   0  0  1  0  0  0  0  0  0  0  0  0
    7.9538   -2.0561    0.0000 C   0  0  0  0  0  0  0  0  0  0  0  0
   10.2714   -2.1131    0.0000 C   0  0  0  0  0  0  0  0  0  0  0  0
   10.2714   -0.3810    0.0000 C   0  0  0  0  0  0  0  0  0  0  0  0
    7.6448    0.5130    0.0000 C   0  0  0  0  0  0  0  0  0  0  0  0
    6.3660   -1.2471    0.0000 C   0  0  0  0  0  0  0  0  0  0  0  0
    5.8660   -2.1131    0.0000 C   0  0  2  0  0  0  0  0  0  0  0  0
    6.3660   -2.9791    0.0000 C   0  0  0  0  0  0  0  0  0  0  0  0
    8.0049    2.2072    0.0000 C   0  0  1  0  0  0  0  0  0  0  0  0
    7.0268    2.4151    0.0000 C   0  0  0  0  0  0  0  0  0  0  0  0
    6.7177    3.3662    0.0000 C   0  0  0  0  0  0  0  0  0  0  0  0
    6.8660   -3.8452    0.0000 C   0  0  0  0  0  0  0  0  0  0  0  0
    5.5000   -3.4791    0.0000 C   0  0  0  0  0  0  0  0  0  0  0  0
    7.2320   -2.4791    0.0000 C   0  0  0  0  0  0  0  0  0  0  0  0
    8.6740    2.9503    0.0000 C   0  0  0  0  0  0  0  0  0  0  0  0
    7.1717    4.2572    0.0000 C   0  0  0  0  0  0  0  0  0  0  0  0
    5.8267    3.8202    0.0000 C   0  0  0  0  0  0  0  0  0  0  0  0
    6.2807    4.7112    0.0000 C   0  0  0  0  0  0  0  0  0  0  0  0
    4.3660   -2.9791    0.0000 C   0  0  0  0  0  0  0  0  0  0  0  0
    9.6522    2.7424    0.0000 C   0  0  0  0  0  0  0  0  0  0  0  0
    2.8660   -3.8452    0.0000 C   0  0  0  0  0  0  0  0  0  0  0  0
    2.3660   -4.7112    0.0000 C   0  0  0  0  0  0  0  0  0  0  0  0
    2.0000   -3.3452    0.0000 C   0  0  0  0  0  0  0  0  0  0  0  0
    3.7320   -4.3452    0.0000 C   0  0  0  0  0  0  0  0  0  0  0  0
    9.2505    0.0295    0.0000 H   0  0  0  0  0  0  0  0  0  0  0  0
    9.2505   -2.5236    0.0000 H   0  0  0  0  0  0  0  0  0  0  0  0
    7.3414   -0.3411    0.0000 H   0  0  0  0  0  0  0  0  0  0  0  0
    7.4169   -2.3661    0.0000 H   0  0  0  0  0  0  0  0  0  0  0  0
    8.2060   -2.6225    0.0000 H   0  0  0  0  0  0  0  0  0  0  0  0
    9.7345   -2.4231    0.0000 H   0  0  0  0  0  0  0  0  0  0  0  0
   10.5814   -2.6500    0.0000 H   0  0  0  0  0  0  0  0  0  0  0  0
   10.8083   -1.8031    0.0000 H   0  0  0  0  0  0  0  0  0  0  0  0
   10.8083   -0.6910    0.0000 H   0  0  0  0  0  0  0  0  0  0  0  0
   10.5814    0.1559    0.0000 H   0  0  0  0  0  0  0  0  0  0  0  0
    9.7345   -0.0710    0.0000 H   0  0  0  0  0  0  0  0  0  0  0  0
    5.5560   -1.5762    0.0000 H   0  0  0  0  0  0  0  0  0  0  0  0
    8.9204    1.1272    0.0000 H   0  0  0  0  0  0  0  0  0  0  0  0
    8.6114    2.0783    0.0000 H   0  0  0  0  0  0  0  0  0  0  0  0
    4.5560   -1.5762    0.0000 H   0  0  0  0  0  0  0  0  0  0  0  0
    6.4128    2.3288    0.0000 H   0  0  0  0  0  0  0  0  0  0  0  0
    7.0051    1.7955    0.0000 H   0  0  0  0  0  0  0  0  0  0  0  0
    6.2463    2.9635    0.0000 H   0  0  0  0  0  0  0  0  0  0  0  0
    6.3291   -4.1552    0.0000 H   0  0  0  0  0  0  0  0  0  0  0  0
    7.1760   -4.3821    0.0000 H   0  0  0  0  0  0  0  0  0  0  0  0
    7.4030   -3.5352    0.0000 H   0  0  0  0  0  0  0  0  0  0  0  0
    5.1900   -2.9422    0.0000 H   0  0  0  0  0  0  0  0  0  0  0  0
    4.9631   -3.7891    0.0000 H   0  0  0  0  0  0  0  0  0  0  0  0
    5.8100   -4.0161    0.0000 H   0  0  0  0  0  0  0  0  0  0  0  0
    7.5420   -3.0161    0.0000 H   0  0  0  0  0  0  0  0  0  0  0  0
    7.7690   -2.1691    0.0000 H   0  0  0  0  0  0  0  0  0  0  0  0
    6.9220   -1.9422    0.0000 H   0  0  0  0  0  0  0  0  0  0  0  0
    7.7242    3.9757    0.0000 H   0  0  0  0  0  0  0  0  0  0  0  0
    7.4532    4.8096    0.0000 H   0  0  0  0  0  0  0  0  0  0  0  0
    5.2743    4.1016    0.0000 H   0  0  0  0  0  0  0  0  0  0  0  0
    5.5453    3.2677    0.0000 H   0  0  0  0  0  0  0  0  0  0  0  0
    6.5622    5.2636    0.0000 H   0  0  0  0  0  0  0  0  0  0  0  0
    5.7283    4.9926    0.0000 H   0  0  0  0  0  0  0  0  0  0  0  0
    3.0560   -2.4422    0.0000 H   0  0  0  0  0  0  0  0  0  0  0  0
   10.9278    3.3567    0.0000 H   0  0  0  0  0  0  0  0  0  0  0  0
   10.1297    4.0752    0.0000 H   0  0  0  0  0  0  0  0  0  0  0  0
    1.8291   -4.4012    0.0000 H   0  0  0  0  0  0  0  0  0  0  0  0
    2.0560   -5.2481    0.0000 H   0  0  0  0  0  0  0  0  0  0  0  0
    2.9030   -5.0212    0.0000 H   0  0  0  0  0  0  0  0  0  0  0  0
    2.3100   -2.8082    0.0000 H   0  0  0  0  0  0  0  0  0  0  0  0
    1.4631   -3.0351    0.0000 H   0  0  0  0  0  0  0  0  0  0  0  0
    1.6900   -3.8821    0.0000 H   0  0  0  0  0  0  0  0  0  0  0  0
    3.4220   -4.8821    0.0000 H   0  0  0  0  0  0  0  0  0  0  0  0
    4.2690   -4.6552    0.0000 H   0  0  0  0  0  0  0  0  0  0  0  0
    4.0420   -3.8082    0.0000 H   0  0  0  0  0  0  0  0  0  0  0  0
  1 18  2  0  0  0  0
  2 19  2  0  0  0  0
  3 28  2  0  0  0  0
  4 32  2  0  0  0  0
  5 33  2  0  0  0  0
  6 14  1  0  0  0  0
  6 15  1  0  0  0  0
  6 19  1  0  0  0  0
  7 18  1  0  0  0  0
 22  7  1  1  0  0  0
  7 50  1  0  0  0  0
 20  8  1  6  0  0  0
  8 32  1  0  0  0  0
  8 52  1  0  0  0  0
  9 32  1  0  0  0  0
  9 34  1  0  0  0  0
  9 71  1  0  0  0  0
 10 33  1  0  0  0  0
 10 72  1  0  0  0  0
 10 73  1  0  0  0  0
 11 12  1  0  0  0  0
 11 13  1  0  0  0  0
 11 14  1  0  0  0  0
 11 38  1  6  0  0  0
 12 13  1  0  0  0  0
 12 16  1  0  0  0  0
 12 17  1  0  0  0  0
 13 15  1  0  0  0  0
 13 39  1  6  0  0  0
 14 18  1  6  0  0  0
 14 40  1  0  0  0  0
 15 41  1  0  0  0  0
 15 42  1  0  0  0  0
 16 43  1  0  0  0  0
 16 44  1  0  0  0  0
 16 45  1  0  0  0  0
 17 46  1  0  0  0  0
 17 47  1  0  0  0  0
 17 48  1  0  0  0  0
 19 20  1  0  0  0  0
 20 21  1  0  0  0  0
 20 49  1  0  0  0  0
 21 25  1  0  0  0  0
 21 26  1  0  0  0  0
 21 27  1  0  0  0  0
 22 23  1  0  0  0  0
 22 28  1  0  0  0  0
 22 51  1  0  0  0  0
 23 24  1  0  0  0  0
 23 53  1  0  0  0  0
 23 54  1  0  0  0  0
 24 29  1  0  0  0  0
 24 30  1  0  0  0  0
 24 55  1  0  0  0  0
 25 56  1  0  0  0  0
 25 57  1  0  0  0  0
 25 58  1  0  0  0  0
 26 59  1  0  0  0  0
 26 60  1  0  0  0  0
 26 61  1  0  0  0  0
 27 62  1  0  0  0  0
 27 63  1  0  0  0  0
 27 64  1  0  0  0  0
 28 33  1  0  0  0  0
 29 31  1  0  0  0  0
 29 65  1  0  0  0  0
 29 66  1  0  0  0  0
 30 31  1  0  0  0  0
 30 67  1  0  0  0  0
 30 68  1  0  0  0  0
 31 69  1  0  0  0  0
 31 70  1  0  0  0  0
 34 35  1  0  0  0  0
 34 36  1  0  0  0  0
 34 37  1  0  0  0  0
 35 74  1  0  0  0  0
 35 75  1  0  0  0  0
 35 76  1  0  0  0  0
 36 77  1  0  0  0  0
 36 78  1  0  0  0  0
 36 79  1  0  0  0  0
 37 80  1  0  0  0  0
 37 81  1  0  0  0  0
 37 82  1  0  0  0  0
M  END
> <PUBCHEM_COMPOUND_CID>
10324368

> <PUBCHEM_COMPOUND_CANONICALIZED>
1

> <PUBCHEM_CACTVS_COMPLEXITY>
959

> <PUBCHEM_CACTVS_HBOND_ACCEPTOR>
5

> <PUBCHEM_CACTVS_HBOND_DONOR>
4

> <PUBCHEM_CACTVS_ROTATABLE_BOND>
10

> <PUBCHEM_CACTVS_SUBSKEYS>
AAADcfB7uAAAAAAAAAAAAAAAGABgAWAAAAAsAAAAAAAAAAAAAAAAHgAQAAAAD6zBgAQDAAPAAAAIAIEQEAAAAAAAAAAAAIGIAACAQBoAwCAUAAAIFgKAAAEYiYCPgAAAAAAAAAAAAAAAAAAAAAAAAAAAAA==

> <PUBCHEM_IUPAC_OPENEYE_NAME>
(1R,2S,5S)-N-[(1S)-3-amino-1-(cyclobutylmethyl)-2,3-dioxo-propyl]-3-[(2S)-2-(tert-butylcarbamoylamino)-3,3-dimethyl-butanoyl]-6,6-dimethyl-3-azabicyclo[3.1.0]hexane-2-carboxamide

> <PUBCHEM_IUPAC_CAS_NAME>
(1R,2S,5S)-N-[(2S)-4-amino-1-cyclobutyl-3,4-dioxobutan-2-yl]-3-[(2S)-2-[[(tert-butylamino)-oxomethyl]amino]-3,3-dimethyl-1-oxobutyl]-6,6-dimethyl-3-azabicyclo[3.1.0]hexane-2-carboxamide

> <PUBCHEM_IUPAC_NAME_MARKUP>
(1<I>R</I>,2<I>S</I>,5<I>S</I>)-<I>N</I>-[(2<I>S</I>)-4-amino-1-cyclobutyl-3,4-dioxobutan-2-yl]-3-[(2<I>S</I>)-2-(<I>tert</I>-butylcarbamoylamino)-3,3-dimethylbutanoyl]-6,6-dimethyl-3-azabicyclo[3.1.0]hexane-2-carboxamide

> <PUBCHEM_IUPAC_NAME>
(1R,2S,5S)-N-[(2S)-4-amino-1-cyclobutyl-3,4-dioxobutan-2-yl]-3-[(2S)-2-(tert-butylcarbamoylamino)-3,3-dimethylbutanoyl]-6,6-dimethyl-3-azabicyclo[3.1.0]hexane-2-carboxamide

> <PUBCHEM_IUPAC_SYSTEMATIC_NAME>
(1R,2S,5S)-N-[(2S)-4-azanyl-1-cyclobutyl-3,4-bis(oxidanylidene)butan-2-yl]-3-[(2S)-2-(tert-butylcarbamoylamino)-3,3-dimethyl-butanoyl]-6,6-dimethyl-3-azabicyclo[3.1.0]hexane-2-carboxamide

> <PUBCHEM_IUPAC_TRADITIONAL_NAME>
(1R,2S,5S)-N-[(1S)-3-amino-1-(cyclobutylmethyl)-2,3-diketo-propyl]-3-[(2S)-2-(tert-butylcarbamoylamino)-3,3-dimethyl-butanoyl]-6,6-dimethyl-3-azabicyclo[3.1.0]hexane-2-carboxamide

> <PUBCHEM_IUPAC_INCHI>
InChI=1S/C27H45N5O5/c1-25(2,3)20(30-24(37)31-26(4,5)6)23(36)32-13-15-17(27(15,7)8)18(32)22(35)29-16(19(33)21(28)34)12-14-10-9-11-14/h14-18,20H,9-13H2,1-8H3,(H2,28,34)(H,29,35)(H2,30,31,37)/t15-,16-,17-,18-,20+/m0/s1

> <PUBCHEM_IUPAC_INCHIKEY>
LHHCSNFAOIFYRV-ZYNAIFEFSA-N

> <PUBCHEM_XLOGP3_AA>
3.1

> <PUBCHEM_EXACT_MASS>
519.34207

> <PUBCHEM_MOLECULAR_FORMULA>
C27H45N5O5

> <PUBCHEM_MOLECULAR_WEIGHT>
519.7

> <PUBCHEM_OPENEYE_CAN_SMILES>
CC1(C2C1C(N(C2)C(=O)C(C(C)(C)C)NC(=O)NC(C)(C)C)C(=O)NC(CC3CCC3)C(=O)C(=O)N)C

> <PUBCHEM_OPENEYE_ISO_SMILES>
CC1([C@@H]2[C@H]1[C@H](N(C2)C(=O)[C@H](C(C)(C)C)NC(=O)NC(C)(C)C)C(=O)N[C@@H](CC3CCC3)C(=O)C(=O)N)C

> <PUBCHEM_CACTVS_TPSA>
151

> <PUBCHEM_MONOISOTOPIC_WEIGHT>
519.34207

> <PUBCHEM_TOTAL_CHARGE>
0

> <PUBCHEM_HEAVY_ATOM_COUNT>
37

> <PUBCHEM_ATOM_DEF_STEREO_COUNT>
5

> <PUBCHEM_ATOM_UDEF_STEREO_COUNT>
0

> <PUBCHEM_BOND_DEF_STEREO_COUNT>
0

> <PUBCHEM_BOND_UDEF_STEREO_COUNT>
0

> <PUBCHEM_ISOTOPIC_ATOM_COUNT>
0

> <PUBCHEM_COMPONENT_COUNT>
1

> <PUBCHEM_CACTVS_TAUTO_COUNT>
-1

> <PUBCHEM_COORDINATE_TYPE>
1
5
255

> <PUBCHEM_BONDANNOTATIONS>
11  38  6
13  39  6
14  18  6
22  7  5
20  8  6

$$$$
