11582982
  -OEChem-05242006102D

 64 66  0     1  0  0  0  0  0999 V2000
    9.7839    2.7203    0.0000 S   0  0  0  0  0  0  0  0  0  0  0  0
    8.1906   -3.3894    0.0000 O   0  0  0  0  0  0  0  0  0  0  0  0
    5.6906    0.9407    0.0000 O   0  0  0  0  0  0  0  0  0  0  0  0
    6.6906    0.9407    0.0000 O   0  0  0  0  0  0  0  0  0  0  0  0
    8.6906   -0.7913    0.0000 O   0  0  0  0  0  0  0  0  0  0  0  0
    5.6906   -0.7913    0.0000 N   0  0  0  0  0  0  0  0  0  0  0  0
    8.6906    0.9407    0.0000 N   0  0  0  0  0  0  0  0  0  0  0  0
   11.1852    1.9113    0.0000 N   0  0  0  0  0  0  0  0  0  0  0  0
    9.6906    0.9407    0.0000 N   0  0  0  0  0  0  0  0  0  0  0  0
    7.1906   -1.6574    0.0000 C   0  0  0  0  0  0  0  0  0  0  0  0
    4.1906    0.0747    0.0000 C   0  0  0  0  0  0  0  0  0  0  0  0
    6.6906   -0.7913    0.0000 C   0  0  1  0  0  0  0  0  0  0  0  0
    3.7568   -0.8263    0.0000 C   0  0  0  0  0  0  0  0  0  0  0  0
    3.7568    0.9757    0.0000 C   0  0  0  0  0  0  0  0  0  0  0  0
    6.6906   -2.5234    0.0000 C   0  0  0  0  0  0  0  0  0  0  0  0
    8.1906   -1.6574    0.0000 C   0  0  0  0  0  0  0  0  0  0  0  0
    2.7818   -1.0488    0.0000 C   0  0  0  0  0  0  0  0  0  0  0  0
    2.7818    1.1982    0.0000 C   0  0  0  0  0  0  0  0  0  0  0  0
    2.0000   -0.4253    0.0000 C   0  0  0  0  0  0  0  0  0  0  0  0
    2.0000    0.5747    0.0000 C   0  0  0  0  0  0  0  0  0  0  0  0
    5.1906    0.0747    0.0000 C   0  0  0  0  0  0  0  0  0  0  0  0
    7.1906   -3.3894    0.0000 C   0  0  0  0  0  0  0  0  0  0  0  0
    8.6906   -2.5234    0.0000 C   0  0  0  0  0  0  0  0  0  0  0  0
    7.1906    0.0747    0.0000 C   0  0  0  0  0  0  0  0  0  0  0  0
    8.1906    0.0747    0.0000 C   0  0  0  0  0  0  0  0  0  0  0  0
   11.3931    2.8894    0.0000 C   0  0  1  0  0  0  0  0  0  0  0  0
   10.5271    3.3894    0.0000 C   0  0  0  0  0  0  0  0  0  0  0  0
   10.1906    1.8067    0.0000 C   0  0  0  0  0  0  0  0  0  0  0  0
   12.3066    3.2962    0.0000 C   0  0  0  0  0  0  0  0  0  0  0  0
   11.8543    1.1681    0.0000 C   0  0  0  0  0  0  0  0  0  0  0  0
    7.5006   -1.1204    0.0000 H   0  0  0  0  0  0  0  0  0  0  0  0
    4.5205   -0.4503    0.0000 H   0  0  0  0  0  0  0  0  0  0  0  0
    6.3806   -1.3283    0.0000 H   0  0  0  0  0  0  0  0  0  0  0  0
    3.7568   -1.4463    0.0000 H   0  0  0  0  0  0  0  0  0  0  0  0
    4.3612   -0.9642    0.0000 H   0  0  0  0  0  0  0  0  0  0  0  0
    4.3612    1.1136    0.0000 H   0  0  0  0  0  0  0  0  0  0  0  0
    3.7568    1.5957    0.0000 H   0  0  0  0  0  0  0  0  0  0  0  0
    6.2157   -2.1249    0.0000 H   0  0  0  0  0  0  0  0  0  0  0  0
    6.2157   -2.9219    0.0000 H   0  0  0  0  0  0  0  0  0  0  0  0
    8.7733   -1.4453    0.0000 H   0  0  0  0  0  0  0  0  0  0  0  0
    8.0830   -1.0468    0.0000 H   0  0  0  0  0  0  0  0  0  0  0  0
    2.2971   -1.4354    0.0000 H   0  0  0  0  0  0  0  0  0  0  0  0
    3.0508   -1.6074    0.0000 H   0  0  0  0  0  0  0  0  0  0  0  0
    3.0508    1.7568    0.0000 H   0  0  0  0  0  0  0  0  0  0  0  0
    2.2971    1.5847    0.0000 H   0  0  0  0  0  0  0  0  0  0  0  0
    1.3955   -0.2874    0.0000 H   0  0  0  0  0  0  0  0  0  0  0  0
    1.7310   -0.9839    0.0000 H   0  0  0  0  0  0  0  0  0  0  0  0
    1.7310    1.1333    0.0000 H   0  0  0  0  0  0  0  0  0  0  0  0
    1.3955    0.4367    0.0000 H   0  0  0  0  0  0  0  0  0  0  0  0
    5.3806   -1.3283    0.0000 H   0  0  0  0  0  0  0  0  0  0  0  0
    6.6080   -3.6015    0.0000 H   0  0  0  0  0  0  0  0  0  0  0  0
    7.2983   -4.0000    0.0000 H   0  0  0  0  0  0  0  0  0  0  0  0
    9.1656   -2.9219    0.0000 H   0  0  0  0  0  0  0  0  0  0  0  0
    9.1656   -2.1249    0.0000 H   0  0  0  0  0  0  0  0  0  0  0  0
   11.8749    2.4992    0.0000 H   0  0  0  0  0  0  0  0  0  0  0  0
    8.3806    1.4776    0.0000 H   0  0  0  0  0  0  0  0  0  0  0  0
   10.8915    3.8910    0.0000 H   0  0  0  0  0  0  0  0  0  0  0  0
   10.0663    3.8043    0.0000 H   0  0  0  0  0  0  0  0  0  0  0  0
   12.5588    2.7298    0.0000 H   0  0  0  0  0  0  0  0  0  0  0  0
   12.8730    3.5483    0.0000 H   0  0  0  0  0  0  0  0  0  0  0  0
   12.0544    3.8626    0.0000 H   0  0  0  0  0  0  0  0  0  0  0  0
   11.3935    0.7533    0.0000 H   0  0  0  0  0  0  0  0  0  0  0  0
   12.2692    0.7074    0.0000 H   0  0  0  0  0  0  0  0  0  0  0  0
   12.3150    1.5830    0.0000 H   0  0  0  0  0  0  0  0  0  0  0  0
  1 27  1  0  0  0  0
  1 28  1  0  0  0  0
  2 22  1  0  0  0  0
  2 23  1  0  0  0  0
  3 21  2  0  0  0  0
  4 24  2  0  0  0  0
  5 25  2  0  0  0  0
 12  6  1  6  0  0  0
  6 21  1  0  0  0  0
  6 50  1  0  0  0  0
  7  9  1  0  0  0  0
  7 25  1  0  0  0  0
  7 56  1  0  0  0  0
  8 26  1  0  0  0  0
  8 28  1  0  0  0  0
  8 30  1  0  0  0  0
  9 28  2  0  0  0  0
 10 12  1  0  0  0  0
 10 15  1  0  0  0  0
 10 16  1  0  0  0  0
 10 31  1  0  0  0  0
 11 13  1  0  0  0  0
 11 14  1  0  0  0  0
 11 21  1  0  0  0  0
 11 32  1  0  0  0  0
 12 24  1  0  0  0  0
 12 33  1  0  0  0  0
 13 17  1  0  0  0  0
 13 34  1  0  0  0  0
 13 35  1  0  0  0  0
 14 18  1  0  0  0  0
 14 36  1  0  0  0  0
 14 37  1  0  0  0  0
 15 22  1  0  0  0  0
 15 38  1  0  0  0  0
 15 39  1  0  0  0  0
 16 23  1  0  0  0  0
 16 40  1  0  0  0  0
 16 41  1  0  0  0  0
 17 19  1  0  0  0  0
 17 42  1  0  0  0  0
 17 43  1  0  0  0  0
 18 20  1  0  0  0  0
 18 44  1  0  0  0  0
 18 45  1  0  0  0  0
 19 20  1  0  0  0  0
 19 46  1  0  0  0  0
 19 47  1  0  0  0  0
 20 48  1  0  0  0  0
 20 49  1  0  0  0  0
 22 51  1  0  0  0  0
 22 52  1  0  0  0  0
 23 53  1  0  0  0  0
 23 54  1  0  0  0  0
 24 25  1  0  0  0  0
 26 27  1  0  0  0  0
 26 29  1  1  0  0  0
 26 55  1  0  0  0  0
 27 57  1  0  0  0  0
 27 58  1  0  0  0  0
 29 59  1  0  0  0  0
 29 60  1  0  0  0  0
 29 61  1  0  0  0  0
 30 62  1  0  0  0  0
 30 63  1  0  0  0  0
 30 64  1  0  0  0  0
M  END
> <PUBCHEM_COMPOUND_CID>
11582982

> <PUBCHEM_COMPOUND_CANONICALIZED>
1

> <PUBCHEM_CACTVS_COMPLEXITY>
657

> <PUBCHEM_CACTVS_HBOND_ACCEPTOR>
6

> <PUBCHEM_CACTVS_HBOND_DONOR>
2

> <PUBCHEM_CACTVS_ROTATABLE_BOND>
6

> <PUBCHEM_CACTVS_SUBSKEYS>
AAADcfB7uABAAAAAAAAAAAAAAAAAAWAAAAAkAAAABgAAAAAAAAAAHgQYAAAADSzlwAaDAAPiBAgoAIEQMAAQAABAABATAIGIAAAAABogyCAGAAAEFgCAAAG4zMCOAAAAAAAAAAAAAAAAAAAAAAAAAAAAAA==

> <PUBCHEM_IUPAC_OPENEYE_NAME>
N-[(1S)-3-[(2Z)-2-[(4R)-3,4-dimethylthiazolidin-2-ylidene]hydrazino]-2,3-dioxo-1-tetrahydropyran-4-yl-propyl]cycloheptanecarboxamide

> <PUBCHEM_IUPAC_CAS_NAME>
N-[(1S)-3-[(2Z)-2-[(4R)-3,4-dimethyl-2-thiazolidinylidene]hydrazinyl]-1-(4-oxanyl)-2,3-dioxopropyl]cycloheptanecarboxamide

> <PUBCHEM_IUPAC_NAME_MARKUP>
<I>N</I>-[(1<I>S</I>)-3-[(2<I>Z</I>)-2-[(4<I>R</I>)-3,4-dimethyl-1,3-thiazolidin-2-ylidene]hydrazinyl]-1-(oxan-4-yl)-2,3-dioxopropyl]cycloheptanecarboxamide

> <PUBCHEM_IUPAC_NAME>
N-[(1S)-3-[(2Z)-2-[(4R)-3,4-dimethyl-1,3-thiazolidin-2-ylidene]hydrazinyl]-1-(oxan-4-yl)-2,3-dioxopropyl]cycloheptanecarboxamide

> <PUBCHEM_IUPAC_SYSTEMATIC_NAME>
N-[(1S)-3-[(2Z)-2-[(4R)-3,4-dimethyl-1,3-thiazolidin-2-ylidene]hydrazinyl]-1-(oxan-4-yl)-2,3-bis(oxidanylidene)propyl]cycloheptanecarboxamide

> <PUBCHEM_IUPAC_TRADITIONAL_NAME>
N-[(1S)-3-[(N'Z)-N'-[(4R)-3,4-dimethylthiazolidin-2-ylidene]hydrazino]-2,3-diketo-1-tetrahydropyran-4-yl-propyl]cycloheptanecarboxamide

> <PUBCHEM_IUPAC_INCHI>
InChI=1S/C21H34N4O4S/c1-14-13-30-21(25(14)2)24-23-20(28)18(26)17(15-9-11-29-12-10-15)22-19(27)16-7-5-3-4-6-8-16/h14-17H,3-13H2,1-2H3,(H,22,27)(H,23,28)/b24-21-/t14-,17+/m1/s1

> <PUBCHEM_IUPAC_INCHIKEY>
BTZCSXIUAFVRTE-CHGLIHOBSA-N

> <PUBCHEM_XLOGP3_AA>
3.1

> <PUBCHEM_EXACT_MASS>
438.230077

> <PUBCHEM_MOLECULAR_FORMULA>
C21H34N4O4S

> <PUBCHEM_MOLECULAR_WEIGHT>
438.6

> <PUBCHEM_OPENEYE_CAN_SMILES>
CC1CSC(=NNC(=O)C(=O)C(C2CCOCC2)NC(=O)C3CCCCCC3)N1C

> <PUBCHEM_OPENEYE_ISO_SMILES>
C[C@@H]1CS/C(=N\NC(=O)C(=O)[C@H](C2CCOCC2)NC(=O)C3CCCCCC3)/N1C

> <PUBCHEM_CACTVS_TPSA>
125

> <PUBCHEM_MONOISOTOPIC_WEIGHT>
438.230077

> <PUBCHEM_TOTAL_CHARGE>
0

> <PUBCHEM_HEAVY_ATOM_COUNT>
30

> <PUBCHEM_ATOM_DEF_STEREO_COUNT>
2

> <PUBCHEM_ATOM_UDEF_STEREO_COUNT>
0

> <PUBCHEM_BOND_DEF_STEREO_COUNT>
1

> <PUBCHEM_BOND_UDEF_STEREO_COUNT>
0

> <PUBCHEM_ISOTOPIC_ATOM_COUNT>
0

> <PUBCHEM_COMPONENT_COUNT>
1

> <PUBCHEM_CACTVS_TAUTO_COUNT>
-1

> <PUBCHEM_COORDINATE_TYPE>
1
5
255

> <PUBCHEM_BONDANNOTATIONS>
26  29  5
12  6  6

$$$$
