118628567
  -OEChem-05242006132D

 66 70  0     1  0  0  0  0  0999 V2000
    2.0000    3.5951    0.0000 Cl  0  0  0  0  0  0  0  0  0  0  0  0
   11.8003   -4.7029    0.0000 S   0  0  0  0  0  0  0  0  0  0  0  0
    5.0301    1.0804    0.0000 S   0  0  0  0  0  0  0  0  0  0  0  0
    8.8813   -4.6945    0.0000 O   0  0  0  0  0  0  0  0  0  0  0  0
   10.8493   -4.3939    0.0000 O   0  0  0  0  0  0  0  0  0  0  0  0
   11.4913   -5.6539    0.0000 O   0  0  0  0  0  0  0  0  0  0  0  0
   12.1093   -3.7518    0.0000 O   0  0  0  0  0  0  0  0  0  0  0  0
    7.6124    0.3759    0.0000 O   0  0  0  0  0  0  0  0  0  0  0  0
    7.7935   -1.3466    0.0000 N   0  0  0  0  0  0  0  0  0  0  0  0
    6.3961    4.1193    0.0000 N   0  0  0  0  0  0  0  0  0  0  0  0
    6.3922   -2.3647    0.0000 N   0  0  0  0  0  0  0  0  0  0  0  0
   12.7514   -5.0119    0.0000 N   0  0  0  0  0  0  0  0  0  0  0  0
    4.8099   -1.6602    0.0000 N   0  0  0  0  0  0  0  0  0  0  0  0
    9.6903   -3.1067    0.0000 C   0  0  1  0  0  0  0  0  0  0  0  0
    8.3813   -2.1556    0.0000 C   0  0  2  0  0  0  0  0  0  0  0  0
    9.3813   -2.1556    0.0000 C   0  0  0  0  0  0  0  0  0  0  0  0
    8.8813   -3.6945    0.0000 C   0  0  2  0  0  0  0  0  0  0  0  0
    8.0722   -3.1067    0.0000 C   0  0  0  0  0  0  0  0  0  0  0  0
   10.6413   -3.4157    0.0000 C   0  0  0  0  0  0  0  0  0  0  0  0
    6.7990   -1.4512    0.0000 C   0  0  0  0  0  0  0  0  0  0  0  0
    5.5301    3.6193    0.0000 C   0  0  2  0  0  0  0  0  0  0  0  0
    6.2112   -0.6421    0.0000 C   0  0  0  0  0  0  0  0  0  0  0  0
    4.6641    4.1193    0.0000 C   0  0  0  0  0  0  0  0  0  0  0  0
    5.5301    2.6193    0.0000 C   0  0  0  0  0  0  0  0  0  0  0  0
    5.5301    5.6193    0.0000 C   0  0  0  0  0  0  0  0  0  0  0  0
    4.6641    5.1193    0.0000 C   0  0  0  0  0  0  0  0  0  0  0  0
    6.3961    5.1193    0.0000 C   0  0  0  0  0  0  0  0  0  0  0  0
    6.6179    0.2714    0.0000 C   0  0  0  0  0  0  0  0  0  0  0  0
    6.0301    1.0804    0.0000 C   0  0  0  0  0  0  0  0  0  0  0  0
    6.3391    2.0315    0.0000 C   0  0  0  0  0  0  0  0  0  0  0  0
    4.7211    2.0315    0.0000 C   0  0  0  0  0  0  0  0  0  0  0  0
    5.2166   -0.7467    0.0000 C   0  0  0  0  0  0  0  0  0  0  0  0
    3.7702    3.5846    0.0000 C   0  0  0  0  0  0  0  0  0  0  0  0
    3.7702    5.6539    0.0000 C   0  0  0  0  0  0  0  0  0  0  0  0
    5.3977   -2.4692    0.0000 C   0  0  0  0  0  0  0  0  0  0  0  0
    2.8641    4.0985    0.0000 C   0  0  0  0  0  0  0  0  0  0  0  0
    2.8641    5.1401    0.0000 C   0  0  0  0  0  0  0  0  0  0  0  0
    3.7700    2.3405    0.0000 C   0  0  0  0  0  0  0  0  0  0  0  0
    9.7873   -3.7191    0.0000 H   0  0  0  0  0  0  0  0  0  0  0  0
    7.7689   -2.2526    0.0000 H   0  0  0  0  0  0  0  0  0  0  0  0
    9.9877   -2.0267    0.0000 H   0  0  0  0  0  0  0  0  0  0  0  0
    9.3165   -1.5390    0.0000 H   0  0  0  0  0  0  0  0  0  0  0  0
    8.3288   -3.9760    0.0000 H   0  0  0  0  0  0  0  0  0  0  0  0
    7.5058   -2.8545    0.0000 H   0  0  0  0  0  0  0  0  0  0  0  0
    7.7622   -3.6436    0.0000 H   0  0  0  0  0  0  0  0  0  0  0  0
   11.2610   -3.3941    0.0000 H   0  0  0  0  0  0  0  0  0  0  0  0
   10.7276   -2.8018    0.0000 H   0  0  0  0  0  0  0  0  0  0  0  0
    8.0457   -0.7802    0.0000 H   0  0  0  0  0  0  0  0  0  0  0  0
    8.3443   -5.0045    0.0000 H   0  0  0  0  0  0  0  0  0  0  0  0
    6.2662    3.1943    0.0000 H   0  0  0  0  0  0  0  0  0  0  0  0
    5.9286    6.0942    0.0000 H   0  0  0  0  0  0  0  0  0  0  0  0
    5.1316    6.0942    0.0000 H   0  0  0  0  0  0  0  0  0  0  0  0
    7.0067    5.0116    0.0000 H   0  0  0  0  0  0  0  0  0  0  0  0
    6.6082    5.7019    0.0000 H   0  0  0  0  0  0  0  0  0  0  0  0
    6.9331    3.8093    0.0000 H   0  0  0  0  0  0  0  0  0  0  0  0
    6.9288    2.2231    0.0000 H   0  0  0  0  0  0  0  0  0  0  0  0
    4.8522   -0.2451    0.0000 H   0  0  0  0  0  0  0  0  0  0  0  0
    3.7773    2.9646    0.0000 H   0  0  0  0  0  0  0  0  0  0  0  0
    3.7773    6.2739    0.0000 H   0  0  0  0  0  0  0  0  0  0  0  0
    5.1455   -3.0356    0.0000 H   0  0  0  0  0  0  0  0  0  0  0  0
   12.8803   -5.6183    0.0000 H   0  0  0  0  0  0  0  0  0  0  0  0
   13.2121   -4.5970    0.0000 H   0  0  0  0  0  0  0  0  0  0  0  0
    2.3284    5.4521    0.0000 H   0  0  0  0  0  0  0  0  0  0  0  0
    3.9616    2.9302    0.0000 H   0  0  0  0  0  0  0  0  0  0  0  0
    3.1804    2.5321    0.0000 H   0  0  0  0  0  0  0  0  0  0  0  0
    3.5785    1.7508    0.0000 H   0  0  0  0  0  0  0  0  0  0  0  0
  1 36  1  0  0  0  0
  2  5  1  0  0  0  0
  2  6  2  0  0  0  0
  2  7  2  0  0  0  0
  2 12  1  0  0  0  0
  3 29  1  0  0  0  0
  3 31  1  0  0  0  0
 17  4  1  1  0  0  0
  4 49  1  0  0  0  0
  5 19  1  0  0  0  0
  8 28  2  0  0  0  0
 15  9  1  6  0  0  0
  9 20  1  0  0  0  0
  9 48  1  0  0  0  0
 10 21  1  0  0  0  0
 10 27  1  0  0  0  0
 10 55  1  0  0  0  0
 11 20  2  0  0  0  0
 11 35  1  0  0  0  0
 12 61  1  0  0  0  0
 12 62  1  0  0  0  0
 13 32  1  0  0  0  0
 13 35  2  0  0  0  0
 14 16  1  0  0  0  0
 14 17  1  0  0  0  0
 14 19  1  6  0  0  0
 14 39  1  0  0  0  0
 15 16  1  0  0  0  0
 15 18  1  0  0  0  0
 15 40  1  0  0  0  0
 16 41  1  0  0  0  0
 16 42  1  0  0  0  0
 17 18  1  0  0  0  0
 17 43  1  0  0  0  0
 18 44  1  0  0  0  0
 18 45  1  0  0  0  0
 19 46  1  0  0  0  0
 19 47  1  0  0  0  0
 20 22  1  0  0  0  0
 21 23  1  0  0  0  0
 21 24  1  0  0  0  0
 21 50  1  6  0  0  0
 22 28  1  0  0  0  0
 22 32  2  0  0  0  0
 23 26  2  0  0  0  0
 23 33  1  0  0  0  0
 24 30  1  0  0  0  0
 24 31  2  0  0  0  0
 25 26  1  0  0  0  0
 25 27  1  0  0  0  0
 25 51  1  0  0  0  0
 25 52  1  0  0  0  0
 26 34  1  0  0  0  0
 27 53  1  0  0  0  0
 27 54  1  0  0  0  0
 28 29  1  0  0  0  0
 29 30  2  0  0  0  0
 30 56  1  0  0  0  0
 31 38  1  0  0  0  0
 32 57  1  0  0  0  0
 33 36  2  0  0  0  0
 33 58  1  0  0  0  0
 34 37  2  0  0  0  0
 34 59  1  0  0  0  0
 35 60  1  0  0  0  0
 36 37  1  0  0  0  0
 37 63  1  0  0  0  0
 38 64  1  0  0  0  0
 38 65  1  0  0  0  0
 38 66  1  0  0  0  0
M  END
> <PUBCHEM_COMPOUND_CID>
118628567

> <PUBCHEM_COMPOUND_CANONICALIZED>
1

> <PUBCHEM_CACTVS_COMPLEXITY>
942

> <PUBCHEM_CACTVS_HBOND_ACCEPTOR>
11

> <PUBCHEM_CACTVS_HBOND_DONOR>
4

> <PUBCHEM_CACTVS_ROTATABLE_BOND>
8

> <PUBCHEM_CACTVS_SUBSKEYS>
AAADceB7uABkAAAAAAAAAAAAAAAAAaIAAAA8WIAAAAAAAACx8AAAHgYQSAAADT7h2iY/sZbIEgisArJ3ZDCDgKk1DbBJ2LkoRtiIOLrh31GEZYhvkALoyee42cOehAAAIAAQAAAIAABAACAAACEABAAAAA==

> <PUBCHEM_IUPAC_OPENEYE_NAME>
[(1R,2S,4R)-4-[[5-[4-[(1R)-7-chloro-1,2,3,4-tetrahydroisoquinolin-1-yl]-5-methyl-thiophene-2-carbonyl]pyrimidin-4-yl]amino]-2-hydroxy-cyclopentyl]methyl sulfamate

> <PUBCHEM_IUPAC_CAS_NAME>
sulfamic acid [(1R,2S,4R)-4-[[5-[[4-[(1R)-7-chloro-1,2,3,4-tetrahydroisoquinolin-1-yl]-5-methyl-2-thiophenyl]-oxomethyl]-4-pyrimidinyl]amino]-2-hydroxycyclopentyl]methyl ester

> <PUBCHEM_IUPAC_NAME_MARKUP>
[(1<I>R</I>,2<I>S</I>,4<I>R</I>)-4-[[5-[4-[(1<I>R</I>)-7-chloro-1,2,3,4-tetrahydroisoquinolin-1-yl]-5-methylthiophene-2-carbonyl]pyrimidin-4-yl]amino]-2-hydroxycyclopentyl]methyl sulfamate

> <PUBCHEM_IUPAC_NAME>
[(1R,2S,4R)-4-[[5-[4-[(1R)-7-chloro-1,2,3,4-tetrahydroisoquinolin-1-yl]-5-methylthiophene-2-carbonyl]pyrimidin-4-yl]amino]-2-hydroxycyclopentyl]methyl sulfamate

> <PUBCHEM_IUPAC_SYSTEMATIC_NAME>
[(1R,2S,4R)-4-[[5-[4-[(1R)-7-chloranyl-1,2,3,4-tetrahydroisoquinolin-1-yl]-5-methyl-thiophen-2-yl]carbonylpyrimidin-4-yl]amino]-2-oxidanyl-cyclopentyl]methyl sulfamate

> <PUBCHEM_IUPAC_TRADITIONAL_NAME>
sulfamic acid [(1R,2S,4R)-4-[[5-[4-[(1R)-7-chloro-1,2,3,4-tetrahydroisoquinolin-1-yl]-5-methyl-thiophene-2-carbonyl]pyrimidin-4-yl]amino]-2-hydroxy-cyclopentyl]methyl ester

> <PUBCHEM_IUPAC_INCHI>
InChI=1S/C25H28ClN5O5S2/c1-13-18(23-19-7-16(26)3-2-14(19)4-5-29-23)9-22(37-13)24(33)20-10-28-12-30-25(20)31-17-6-15(21(32)8-17)11-36-38(27,34)35/h2-3,7,9-10,12,15,17,21,23,29,32H,4-6,8,11H2,1H3,(H2,27,34,35)(H,28,30,31)/t15-,17-,21+,23+/m1/s1

> <PUBCHEM_IUPAC_INCHIKEY>
LXRZVMYMQHNYJB-UNXOBOICSA-N

> <PUBCHEM_XLOGP3_AA>
3.5

> <PUBCHEM_EXACT_MASS>
577.122039

> <PUBCHEM_MOLECULAR_FORMULA>
C25H28ClN5O5S2

> <PUBCHEM_MOLECULAR_WEIGHT>
578.1

> <PUBCHEM_OPENEYE_CAN_SMILES>
CC1=C(C=C(S1)C(=O)C2=CN=CN=C2NC3CC(C(C3)O)COS(=O)(=O)N)C4C5=C(CCN4)C=CC(=C5)Cl

> <PUBCHEM_OPENEYE_ISO_SMILES>
CC1=C(C=C(S1)C(=O)C2=CN=CN=C2N[C@@H]3C[C@@H]([C@H](C3)O)COS(=O)(=O)N)[C@H]4C5=C(CCN4)C=CC(=C5)Cl

> <PUBCHEM_CACTVS_TPSA>
193

> <PUBCHEM_MONOISOTOPIC_WEIGHT>
577.122039

> <PUBCHEM_TOTAL_CHARGE>
0

> <PUBCHEM_HEAVY_ATOM_COUNT>
38

> <PUBCHEM_ATOM_DEF_STEREO_COUNT>
4

> <PUBCHEM_ATOM_UDEF_STEREO_COUNT>
0

> <PUBCHEM_BOND_DEF_STEREO_COUNT>
0

> <PUBCHEM_BOND_UDEF_STEREO_COUNT>
0

> <PUBCHEM_ISOTOPIC_ATOM_COUNT>
0

> <PUBCHEM_COMPONENT_COUNT>
1

> <PUBCHEM_CACTVS_TAUTO_COUNT>
-1

> <PUBCHEM_COORDINATE_TYPE>
1
5
255

> <PUBCHEM_BONDANNOTATIONS>
11  20  8
11  35  8
13  32  8
13  35  8
14  19  6
20  22  8
21  50  6
22  32  8
23  26  8
23  33  8
24  30  8
24  31  8
26  34  8
29  30  8
3  29  8
3  31  8
33  36  8
34  37  8
36  37  8
17  4  5
15  9  6

$$$$
