118737648
  -OEChem-05242006132D

 64 65  0     1  0  0  0  0  0999 V2000
    8.0622    0.1156    0.0000 S   0  0  0  0  0  0  0  0  0  0  0  0
    8.9282    1.6156    0.0000 O   0  0  0  0  0  0  0  0  0  0  0  0
    7.4236    4.7792    0.0000 O   0  0  0  0  0  0  0  0  0  0  0  0
    8.0622   -0.8844    0.0000 O   0  0  0  0  0  0  0  0  0  0  0  0
    5.4641    2.6156    0.0000 O   0  0  0  0  0  0  0  0  0  0  0  0
    9.0622    0.1156    0.0000 O   0  0  0  0  0  0  0  0  0  0  0  0
    7.0622    0.1156    0.0000 O   0  0  0  0  0  0  0  0  0  0  0  0
    3.7320   -1.3844    0.0000 O   0  0  0  0  0  0  0  0  0  0  0  0
    2.8660    0.1156    0.0000 O   0  0  0  0  0  0  0  0  0  0  0  0
    6.3301    1.1156    0.0000 N   0  0  0  0  0  0  0  0  0  0  0  0
    9.1448    4.3180    0.0000 N   0  0  0  0  0  0  0  0  0  0  0  0
    4.5981    0.1156    0.0000 N   0  0  0  0  0  0  0  0  0  0  0  0
    8.0622    3.1156    0.0000 C   0  0  2  0  0  0  0  0  0  0  0  0
    7.1962    2.6156    0.0000 C   0  0  0  0  0  0  0  0  0  0  0  0
    7.1962    1.6156    0.0000 C   0  0  1  0  0  0  0  0  0  0  0  0
    8.9757    2.7088    0.0000 C   0  0  0  0  0  0  0  0  0  0  0  0
    9.6448    3.4520    0.0000 C   0  0  0  0  0  0  0  0  0  0  0  0
    8.0622    1.1156    0.0000 C   0  0  3  0  0  0  0  0  0  0  0  0
    8.1667    4.1101    0.0000 C   0  0  0  0  0  0  0  0  0  0  0  0
    4.5981    1.1156    0.0000 C   0  0  2  0  0  0  0  0  0  0  0  0
    5.4641    1.6156    0.0000 C   0  0  0  0  0  0  0  0  0  0  0  0
    3.7320    1.6156    0.0000 C   0  0  0  0  0  0  0  0  0  0  0  0
    3.7320    2.6156    0.0000 C   0  0  0  0  0  0  0  0  0  0  0  0
    2.8660    3.1156    0.0000 C   0  0  0  0  0  0  0  0  0  0  0  0
    4.5981    3.1156    0.0000 C   0  0  0  0  0  0  0  0  0  0  0  0
    3.7320   -0.3844    0.0000 C   0  0  0  0  0  0  0  0  0  0  0  0
    2.8660   -1.8844    0.0000 C   0  0  0  0  0  0  0  0  0  0  0  0
    2.8660   -2.8844    0.0000 C   0  0  0  0  0  0  0  0  0  0  0  0
    2.0000   -3.3844    0.0000 C   0  0  0  0  0  0  0  0  0  0  0  0
    3.7320   -3.3844    0.0000 C   0  0  0  0  0  0  0  0  0  0  0  0
    2.0000   -4.3844    0.0000 C   0  0  0  0  0  0  0  0  0  0  0  0
    3.7320   -4.3844    0.0000 C   0  0  0  0  0  0  0  0  0  0  0  0
    2.8660   -4.8844    0.0000 C   0  0  0  0  0  0  0  0  0  0  0  0
    8.0946    2.4964    0.0000 H   0  0  0  0  0  0  0  0  0  0  0  0
    6.9841    3.1982    0.0000 H   0  0  0  0  0  0  0  0  0  0  0  0
    6.5856    2.5079    0.0000 H   0  0  0  0  0  0  0  0  0  0  0  0
    6.6592    1.9256    0.0000 H   0  0  0  0  0  0  0  0  0  0  0  0
    8.6657    2.1719    0.0000 H   0  0  0  0  0  0  0  0  0  0  0  0
    9.4773    2.3444    0.0000 H   0  0  0  0  0  0  0  0  0  0  0  0
   10.0597    2.9912    0.0000 H   0  0  0  0  0  0  0  0  0  0  0  0
   10.1464    3.8164    0.0000 H   0  0  0  0  0  0  0  0  0  0  0  0
    8.0622    1.7356    0.0000 H   0  0  0  0  0  0  0  0  0  0  0  0
    6.3301    0.4956    0.0000 H   0  0  0  0  0  0  0  0  0  0  0  0
    9.3970    4.8844    0.0000 H   0  0  0  0  0  0  0  0  0  0  0  0
    5.1350    0.8056    0.0000 H   0  0  0  0  0  0  0  0  0  0  0  0
    3.1215    1.7232    0.0000 H   0  0  0  0  0  0  0  0  0  0  0  0
    3.5200    1.0330    0.0000 H   0  0  0  0  0  0  0  0  0  0  0  0
    3.7320    3.2356    0.0000 H   0  0  0  0  0  0  0  0  0  0  0  0
    9.4651    1.3056    0.0000 H   0  0  0  0  0  0  0  0  0  0  0  0
    5.1350   -0.1944    0.0000 H   0  0  0  0  0  0  0  0  0  0  0  0
    3.1760    3.6525    0.0000 H   0  0  0  0  0  0  0  0  0  0  0  0
    2.3291    3.4256    0.0000 H   0  0  0  0  0  0  0  0  0  0  0  0
    2.5560    2.5786    0.0000 H   0  0  0  0  0  0  0  0  0  0  0  0
    4.9081    2.5786    0.0000 H   0  0  0  0  0  0  0  0  0  0  0  0
    5.1350    3.4256    0.0000 H   0  0  0  0  0  0  0  0  0  0  0  0
    4.2881    3.6525    0.0000 H   0  0  0  0  0  0  0  0  0  0  0  0
    8.5991   -1.1944    0.0000 H   0  0  0  0  0  0  0  0  0  0  0  0
    2.6540   -1.3018    0.0000 H   0  0  0  0  0  0  0  0  0  0  0  0
    2.2554   -1.9921    0.0000 H   0  0  0  0  0  0  0  0  0  0  0  0
    1.4631   -3.0744    0.0000 H   0  0  0  0  0  0  0  0  0  0  0  0
    4.2690   -3.0744    0.0000 H   0  0  0  0  0  0  0  0  0  0  0  0
    1.4631   -4.6944    0.0000 H   0  0  0  0  0  0  0  0  0  0  0  0
    4.2690   -4.6944    0.0000 H   0  0  0  0  0  0  0  0  0  0  0  0
    2.8660   -5.5044    0.0000 H   0  0  0  0  0  0  0  0  0  0  0  0
  1  4  1  0  0  0  0
  1  6  2  0  0  0  0
  1  7  2  0  0  0  0
  1 18  1  0  0  0  0
  2 18  1  0  0  0  0
  2 49  1  0  0  0  0
  3 19  2  0  0  0  0
  4 57  1  0  0  0  0
  5 21  2  0  0  0  0
  8 26  1  0  0  0  0
  8 27  1  0  0  0  0
  9 26  2  0  0  0  0
 15 10  1  1  0  0  0
 10 21  1  0  0  0  0
 10 43  1  0  0  0  0
 11 17  1  0  0  0  0
 11 19  1  0  0  0  0
 11 44  1  0  0  0  0
 20 12  1  1  0  0  0
 12 26  1  0  0  0  0
 12 50  1  0  0  0  0
 13 14  1  1  0  0  0
 13 16  1  0  0  0  0
 13 19  1  0  0  0  0
 13 34  1  0  0  0  0
 14 15  1  0  0  0  0
 14 35  1  0  0  0  0
 14 36  1  0  0  0  0
 15 18  1  0  0  0  0
 15 37  1  0  0  0  0
 16 17  1  0  0  0  0
 16 38  1  0  0  0  0
 16 39  1  0  0  0  0
 17 40  1  0  0  0  0
 17 41  1  0  0  0  0
 18 42  1  0  0  0  0
 20 21  1  0  0  0  0
 20 22  1  0  0  0  0
 20 45  1  0  0  0  0
 22 23  1  0  0  0  0
 22 46  1  0  0  0  0
 22 47  1  0  0  0  0
 23 24  1  0  0  0  0
 23 25  1  0  0  0  0
 23 48  1  0  0  0  0
 24 51  1  0  0  0  0
 24 52  1  0  0  0  0
 24 53  1  0  0  0  0
 25 54  1  0  0  0  0
 25 55  1  0  0  0  0
 25 56  1  0  0  0  0
 27 28  1  0  0  0  0
 27 58  1  0  0  0  0
 27 59  1  0  0  0  0
 28 29  2  0  0  0  0
 28 30  1  0  0  0  0
 29 31  1  0  0  0  0
 29 60  1  0  0  0  0
 30 32  2  0  0  0  0
 30 61  1  0  0  0  0
 31 33  2  0  0  0  0
 31 62  1  0  0  0  0
 32 33  1  0  0  0  0
 32 63  1  0  0  0  0
 33 64  1  0  0  0  0
M  END
> <PUBCHEM_COMPOUND_CID>
118737648

> <PUBCHEM_COMPOUND_CANONICALIZED>
1

> <PUBCHEM_CACTVS_COMPLEXITY>
777

> <PUBCHEM_CACTVS_HBOND_ACCEPTOR>
8

> <PUBCHEM_CACTVS_HBOND_DONOR>
5

> <PUBCHEM_CACTVS_ROTATABLE_BOND>
12

> <PUBCHEM_CACTVS_SUBSKEYS>
AAADceB7PABAAAAAAAAAAAAAAAAAAWAAAAAwAAAAAAAAAAABAAAAHgQQCAAADSjl2AayCILABoKIAiFSGHBCAAAgAAAIiIGICIkKdjKAsTiccAAk1gGYqAec1CIOAAAAAAAAAAAAAAAAAAAAAAAAAAAAAA==

> <PUBCHEM_IUPAC_OPENEYE_NAME>
(2S)-2-[[(2S)-2-(benzyloxycarbonylamino)-4-methyl-pentanoyl]amino]-1-hydroxy-3-[(3S)-2-oxopyrrolidin-3-yl]propane-1-sulfonic acid

> <PUBCHEM_IUPAC_CAS_NAME>
(2S)-1-hydroxy-2-[[(2S)-4-methyl-1-oxo-2-(phenylmethoxycarbonylamino)pentyl]amino]-3-[(3S)-2-oxo-3-pyrrolidinyl]-1-propanesulfonic acid

> <PUBCHEM_IUPAC_NAME_MARKUP>
(2<I>S</I>)-1-hydroxy-2-[[(2<I>S</I>)-4-methyl-2-(phenylmethoxycarbonylamino)pentanoyl]amino]-3-[(3<I>S</I>)-2-oxopyrrolidin-3-yl]propane-1-sulfonic acid

> <PUBCHEM_IUPAC_NAME>
(2S)-1-hydroxy-2-[[(2S)-4-methyl-2-(phenylmethoxycarbonylamino)pentanoyl]amino]-3-[(3S)-2-oxopyrrolidin-3-yl]propane-1-sulfonic acid

> <PUBCHEM_IUPAC_SYSTEMATIC_NAME>
(2S)-2-[[(2S)-4-methyl-2-(phenylmethoxycarbonylamino)pentanoyl]amino]-1-oxidanyl-3-[(3S)-2-oxidanylidenepyrrolidin-3-yl]propane-1-sulfonic acid

> <PUBCHEM_IUPAC_TRADITIONAL_NAME>
(2S)-2-[[(2S)-2-(benzyloxycarbonylamino)-4-methyl-pentanoyl]amino]-1-hydroxy-3-[(3S)-2-ketopyrrolidin-3-yl]propane-1-sulfonic acid

> <PUBCHEM_IUPAC_INCHI>
InChI=1S/C21H31N3O8S/c1-13(2)10-16(24-21(28)32-12-14-6-4-3-5-7-14)19(26)23-17(20(27)33(29,30)31)11-15-8-9-22-18(15)25/h3-7,13,15-17,20,27H,8-12H2,1-2H3,(H,22,25)(H,23,26)(H,24,28)(H,29,30,31)/t15-,16-,17-,20?/m0/s1

> <PUBCHEM_IUPAC_INCHIKEY>
BSPZFJDYQHDZNR-HTCLRFROSA-N

> <PUBCHEM_XLOGP3_AA>
0.7

> <PUBCHEM_EXACT_MASS>
485.183186

> <PUBCHEM_MOLECULAR_FORMULA>
C21H31N3O8S

> <PUBCHEM_MOLECULAR_WEIGHT>
485.6

> <PUBCHEM_OPENEYE_CAN_SMILES>
CC(C)CC(C(=O)NC(CC1CCNC1=O)C(O)S(=O)(=O)O)NC(=O)OCC2=CC=CC=C2

> <PUBCHEM_OPENEYE_ISO_SMILES>
CC(C)C[C@@H](C(=O)N[C@@H](C[C@@H]1CCNC1=O)C(O)S(=O)(=O)O)NC(=O)OCC2=CC=CC=C2

> <PUBCHEM_CACTVS_TPSA>
180

> <PUBCHEM_MONOISOTOPIC_WEIGHT>
485.183186

> <PUBCHEM_TOTAL_CHARGE>
0

> <PUBCHEM_HEAVY_ATOM_COUNT>
33

> <PUBCHEM_ATOM_DEF_STEREO_COUNT>
3

> <PUBCHEM_ATOM_UDEF_STEREO_COUNT>
1

> <PUBCHEM_BOND_DEF_STEREO_COUNT>
0

> <PUBCHEM_BOND_UDEF_STEREO_COUNT>
0

> <PUBCHEM_ISOTOPIC_ATOM_COUNT>
0

> <PUBCHEM_COMPONENT_COUNT>
1

> <PUBCHEM_CACTVS_TAUTO_COUNT>
-1

> <PUBCHEM_COORDINATE_TYPE>
1
5
255

> <PUBCHEM_BONDANNOTATIONS>
15  10  5
20  12  5
13  14  5
18  2  3
28  29  8
28  30  8
29  31  8
30  32  8
31  33  8
32  33  8

$$$$
