123805
  -OEChem-05242006112D

126128  0     1  0  0  0  0  0999 V2000
    4.4487    3.8767    0.0000 O   0  0  0  0  0  0  0  0  0  0  0  0
    5.7500    6.5185    0.0000 O   0  0  0  0  0  0  0  0  0  0  0  0
    4.5911    5.2313    0.0000 O   0  0  0  0  0  0  0  0  0  0  0  0
    5.3147    0.3767    0.0000 O   0  0  0  0  0  0  0  0  0  0  0  0
    8.7788   -0.6233    0.0000 O   0  0  0  0  0  0  0  0  0  0  0  0
    9.6448   -1.1233    0.0000 O   0  0  0  0  0  0  0  0  0  0  0  0
   12.2429   -3.6233    0.0000 O   0  0  0  0  0  0  0  0  0  0  0  0
   14.8410   -1.1233    0.0000 O   0  0  0  0  0  0  0  0  0  0  0  0
    7.0468   -6.6233    0.0000 O   0  0  0  0  0  0  0  0  0  0  0  0
   18.3051   -2.1233    0.0000 O   0  0  0  0  0  0  0  0  0  0  0  0
   17.4391   -3.6233    0.0000 O   0  0  0  0  0  0  0  0  0  0  0  0
    6.1808    3.8767    0.0000 N   0  0  0  0  0  0  0  0  0  0  0  0
    6.1808    1.8767    0.0000 N   0  0  0  0  0  0  0  0  0  0  0  0
    7.0468   -0.6233    0.0000 N   0  0  0  0  0  0  0  0  0  0  0  0
    8.7788   -2.6233    0.0000 N   0  0  0  0  0  0  0  0  0  0  0  0
    2.6691    1.9699    0.0000 N   0  0  0  0  0  0  0  0  0  0  0  0
   11.3769   -2.1233    0.0000 N   0  0  0  0  0  0  0  0  0  0  0  0
    2.5000    3.5791    0.0000 N   0  0  0  0  0  0  0  0  0  0  0  0
   13.9750   -2.6233    0.0000 N   0  0  0  0  0  0  0  0  0  0  0  0
   14.8410    0.8767    0.0000 N   0  0  0  0  0  0  0  0  0  0  0  0
   15.7070   -3.6233    0.0000 N   0  0  0  0  0  0  0  0  0  0  0  0
   15.7070    2.3767    0.0000 N   0  0  0  0  0  0  0  0  0  0  0  0
   13.9750    2.3767    0.0000 N   0  0  0  0  0  0  0  0  0  0  0  0
    6.2853    4.8712    0.0000 C   0  0  1  0  0  0  0  0  0  0  0  0
    7.2634    5.0791    0.0000 C   0  0  0  0  0  0  0  0  0  0  0  0
    7.7634    4.2131    0.0000 C   0  0  0  0  0  0  0  0  0  0  0  0
    7.0943    3.4699    0.0000 C   0  0  0  0  0  0  0  0  0  0  0  0
    5.3147    3.3767    0.0000 C   0  0  0  0  0  0  0  0  0  0  0  0
    5.3147    2.3767    0.0000 C   0  0  2  0  0  0  0  0  0  0  0  0
    5.5421    5.5403    0.0000 C   0  0  0  0  0  0  0  0  0  0  0  0
    7.0468    0.3767    0.0000 C   0  0  1  0  0  0  0  0  0  0  0  0
    4.4487    1.8767    0.0000 C   0  0  0  0  0  0  0  0  0  0  0  0
    7.9128    0.8767    0.0000 C   0  0  2  0  0  0  0  0  0  0  0  0
    6.1808    0.8767    0.0000 C   0  0  0  0  0  0  0  0  0  0  0  0
    7.9128    1.8767    0.0000 C   0  0  0  0  0  0  0  0  0  0  0  0
    3.5827    2.3767    0.0000 C   0  0  0  0  0  0  0  0  0  0  0  0
    8.7788    0.3767    0.0000 C   0  0  0  0  0  0  0  0  0  0  0  0
    7.9128   -2.1233    0.0000 C   0  0  2  0  0  0  0  0  0  0  0  0
    7.9128   -1.1233    0.0000 C   0  0  0  0  0  0  0  0  0  0  0  0
   10.5109   -2.6233    0.0000 C   0  0  1  0  0  0  0  0  0  0  0  0
    8.7788    2.3767    0.0000 C   0  0  0  0  0  0  0  0  0  0  0  0
   10.5109   -3.6233    0.0000 C   0  0  0  0  0  0  0  0  0  0  0  0
    7.0468   -2.6233    0.0000 C   0  0  0  0  0  0  0  0  0  0  0  0
    9.6448   -2.1233    0.0000 C   0  0  0  0  0  0  0  0  0  0  0  0
    3.4782    3.3712    0.0000 C   0  0  0  0  0  0  0  0  0  0  0  0
   13.1090   -2.1233    0.0000 C   0  0  2  0  0  0  0  0  0  0  0  0
    7.0468   -3.6233    0.0000 C   0  0  0  0  0  0  0  0  0  0  0  0
   11.3769   -4.1233    0.0000 C   0  0  0  0  0  0  0  0  0  0  0  0
    9.6448   -4.1233    0.0000 C   0  0  0  0  0  0  0  0  0  0  0  0
   12.2429   -2.6233    0.0000 C   0  0  0  0  0  0  0  0  0  0  0  0
    2.0000    2.7131    0.0000 C   0  0  0  0  0  0  0  0  0  0  0  0
   13.1090   -1.1233    0.0000 C   0  0  0  0  0  0  0  0  0  0  0  0
   13.9750   -0.6233    0.0000 C   0  0  0  0  0  0  0  0  0  0  0  0
    7.9128   -4.1233    0.0000 C   0  0  0  0  0  0  0  0  0  0  0  0
    6.1808   -4.1233    0.0000 C   0  0  0  0  0  0  0  0  0  0  0  0
   13.9750    0.3767    0.0000 C   0  0  0  0  0  0  0  0  0  0  0  0
   14.8410   -2.1233    0.0000 C   0  0  0  0  0  0  0  0  0  0  0  0
    7.9128   -5.1233    0.0000 C   0  0  0  0  0  0  0  0  0  0  0  0
    6.1808   -5.1233    0.0000 C   0  0  0  0  0  0  0  0  0  0  0  0
   15.7070   -2.6233    0.0000 C   0  0  2  0  0  0  0  0  0  0  0  0
    7.0468   -5.6233    0.0000 C   0  0  0  0  0  0  0  0  0  0  0  0
   16.5731   -2.1233    0.0000 C   0  0  0  0  0  0  0  0  0  0  0  0
   17.4391   -2.6233    0.0000 C   0  0  0  0  0  0  0  0  0  0  0  0
   14.8410    1.8767    0.0000 C   0  0  0  0  0  0  0  0  0  0  0  0
    5.7065    4.6490    0.0000 H   0  0  0  0  0  0  0  0  0  0  0  0
    7.8298    5.3313    0.0000 H   0  0  0  0  0  0  0  0  0  0  0  0
    7.0718    5.6688    0.0000 H   0  0  0  0  0  0  0  0  0  0  0  0
    8.1783    3.7523    0.0000 H   0  0  0  0  0  0  0  0  0  0  0  0
    8.2650    4.5775    0.0000 H   0  0  0  0  0  0  0  0  0  0  0  0
    6.7843    2.9330    0.0000 H   0  0  0  0  0  0  0  0  0  0  0  0
    7.5959    3.1055    0.0000 H   0  0  0  0  0  0  0  0  0  0  0  0
    5.3147    1.7567    0.0000 H   0  0  0  0  0  0  0  0  0  0  0  0
    6.5098    0.0667    0.0000 H   0  0  0  0  0  0  0  0  0  0  0  0
    4.0502    1.4017    0.0000 H   0  0  0  0  0  0  0  0  0  0  0  0
    4.8472    1.4017    0.0000 H   0  0  0  0  0  0  0  0  0  0  0  0
    7.9128    0.2567    0.0000 H   0  0  0  0  0  0  0  0  0  0  0  0
    6.7177    2.1867    0.0000 H   0  0  0  0  0  0  0  0  0  0  0  0
    7.7008    2.4593    0.0000 H   0  0  0  0  0  0  0  0  0  0  0  0
    7.3022    1.7690    0.0000 H   0  0  0  0  0  0  0  0  0  0  0  0
    6.5098   -0.9333    0.0000 H   0  0  0  0  0  0  0  0  0  0  0  0
    8.4688   -0.1603    0.0000 H   0  0  0  0  0  0  0  0  0  0  0  0
    9.3158    0.0667    0.0000 H   0  0  0  0  0  0  0  0  0  0  0  0
    9.0888    0.9136    0.0000 H   0  0  0  0  0  0  0  0  0  0  0  0
    7.9128   -2.7433    0.0000 H   0  0  0  0  0  0  0  0  0  0  0  0
   10.5109   -2.0033    0.0000 H   0  0  0  0  0  0  0  0  0  0  0  0
    5.2893    6.9333    0.0000 H   0  0  0  0  0  0  0  0  0  0  0  0
    9.0888    1.8397    0.0000 H   0  0  0  0  0  0  0  0  0  0  0  0
    9.3158    2.6867    0.0000 H   0  0  0  0  0  0  0  0  0  0  0  0
    8.4688    2.9136    0.0000 H   0  0  0  0  0  0  0  0  0  0  0  0
   11.0478   -3.3133    0.0000 H   0  0  0  0  0  0  0  0  0  0  0  0
    6.8347   -2.0407    0.0000 H   0  0  0  0  0  0  0  0  0  0  0  0
    6.4362   -2.7310    0.0000 H   0  0  0  0  0  0  0  0  0  0  0  0
    8.7788   -3.2433    0.0000 H   0  0  0  0  0  0  0  0  0  0  0  0
    2.5402    1.3635    0.0000 H   0  0  0  0  0  0  0  0  0  0  0  0
    3.9389    3.7860    0.0000 H   0  0  0  0  0  0  0  0  0  0  0  0
   11.3769   -1.5033    0.0000 H   0  0  0  0  0  0  0  0  0  0  0  0
   13.1090   -2.7433    0.0000 H   0  0  0  0  0  0  0  0  0  0  0  0
   11.0669   -4.6603    0.0000 H   0  0  0  0  0  0  0  0  0  0  0  0
   11.9138   -4.4333    0.0000 H   0  0  0  0  0  0  0  0  0  0  0  0
   11.6869   -3.5864    0.0000 H   0  0  0  0  0  0  0  0  0  0  0  0
    9.3348   -3.5864    0.0000 H   0  0  0  0  0  0  0  0  0  0  0  0
    9.1079   -4.4333    0.0000 H   0  0  0  0  0  0  0  0  0  0  0  0
    9.9548   -4.6603    0.0000 H   0  0  0  0  0  0  0  0  0  0  0  0
   12.8969   -0.5407    0.0000 H   0  0  0  0  0  0  0  0  0  0  0  0
   12.4984   -1.2310    0.0000 H   0  0  0  0  0  0  0  0  0  0  0  0
    1.3834    2.6483    0.0000 H   0  0  0  0  0  0  0  0  0  0  0  0
   14.1870   -1.2059    0.0000 H   0  0  0  0  0  0  0  0  0  0  0  0
   14.5856   -0.5157    0.0000 H   0  0  0  0  0  0  0  0  0  0  0  0
   13.9750   -3.2433    0.0000 H   0  0  0  0  0  0  0  0  0  0  0  0
    8.4497   -3.8133    0.0000 H   0  0  0  0  0  0  0  0  0  0  0  0
    5.6438   -3.8133    0.0000 H   0  0  0  0  0  0  0  0  0  0  0  0
   13.7629    0.9593    0.0000 H   0  0  0  0  0  0  0  0  0  0  0  0
   13.3644    0.2690    0.0000 H   0  0  0  0  0  0  0  0  0  0  0  0
   15.1701   -2.9333    0.0000 H   0  0  0  0  0  0  0  0  0  0  0  0
    8.4497   -5.4333    0.0000 H   0  0  0  0  0  0  0  0  0  0  0  0
    5.6438   -5.4333    0.0000 H   0  0  0  0  0  0  0  0  0  0  0  0
   16.9716   -1.6484    0.0000 H   0  0  0  0  0  0  0  0  0  0  0  0
   16.1745   -1.6484    0.0000 H   0  0  0  0  0  0  0  0  0  0  0  0
   16.2440   -3.9333    0.0000 H   0  0  0  0  0  0  0  0  0  0  0  0
   15.1701   -3.9333    0.0000 H   0  0  0  0  0  0  0  0  0  0  0  0
    6.5098   -6.9333    0.0000 H   0  0  0  0  0  0  0  0  0  0  0  0
   15.7070    2.9967    0.0000 H   0  0  0  0  0  0  0  0  0  0  0  0
   16.2440    2.0667    0.0000 H   0  0  0  0  0  0  0  0  0  0  0  0
   13.9750    2.9967    0.0000 H   0  0  0  0  0  0  0  0  0  0  0  0
   13.4380    2.0667    0.0000 H   0  0  0  0  0  0  0  0  0  0  0  0
   18.8420   -2.4333    0.0000 H   0  0  0  0  0  0  0  0  0  0  0  0
  1 28  2  0  0  0  0
  2 30  1  0  0  0  0
  2 86  1  0  0  0  0
  3 30  2  0  0  0  0
  4 34  2  0  0  0  0
  5 39  2  0  0  0  0
  6 44  2  0  0  0  0
  7 50  2  0  0  0  0
  8 57  2  0  0  0  0
  9 61  1  0  0  0  0
  9121  1  0  0  0  0
 10 63  1  0  0  0  0
 10126  1  0  0  0  0
 11 63  2  0  0  0  0
 12 24  1  0  0  0  0
 12 27  1  0  0  0  0
 12 28  1  0  0  0  0
 29 13  1  1  0  0  0
 13 34  1  0  0  0  0
 13 77  1  0  0  0  0
 31 14  1  6  0  0  0
 14 39  1  0  0  0  0
 14 80  1  0  0  0  0
 38 15  1  1  0  0  0
 15 44  1  0  0  0  0
 15 93  1  0  0  0  0
 16 36  1  0  0  0  0
 16 51  1  0  0  0  0
 16 94  1  0  0  0  0
 40 17  1  1  0  0  0
 17 50  1  0  0  0  0
 17 96  1  0  0  0  0
 18 45  1  0  0  0  0
 18 51  2  0  0  0  0
 46 19  1  6  0  0  0
 19 57  1  0  0  0  0
 19109  1  0  0  0  0
 20 56  1  0  0  0  0
 20 64  2  0  0  0  0
 60 21  1  6  0  0  0
 21119  1  0  0  0  0
 21120  1  0  0  0  0
 22 64  1  0  0  0  0
 22122  1  0  0  0  0
 22123  1  0  0  0  0
 23 64  1  0  0  0  0
 23124  1  0  0  0  0
 23125  1  0  0  0  0
 24 25  1  0  0  0  0
 24 30  1  6  0  0  0
 24 65  1  0  0  0  0
 25 26  1  0  0  0  0
 25 66  1  0  0  0  0
 25 67  1  0  0  0  0
 26 27  1  0  0  0  0
 26 68  1  0  0  0  0
 26 69  1  0  0  0  0
 27 70  1  0  0  0  0
 27 71  1  0  0  0  0
 28 29  1  0  0  0  0
 29 32  1  0  0  0  0
 29 72  1  0  0  0  0
 31 33  1  0  0  0  0
 31 34  1  0  0  0  0
 31 73  1  0  0  0  0
 32 36  1  0  0  0  0
 32 74  1  0  0  0  0
 32 75  1  0  0  0  0
 33 35  1  0  0  0  0
 33 37  1  6  0  0  0
 33 76  1  0  0  0  0
 35 41  1  0  0  0  0
 35 78  1  0  0  0  0
 35 79  1  0  0  0  0
 36 45  2  0  0  0  0
 37 81  1  0  0  0  0
 37 82  1  0  0  0  0
 37 83  1  0  0  0  0
 38 39  1  0  0  0  0
 38 43  1  0  0  0  0
 38 84  1  0  0  0  0
 40 42  1  0  0  0  0
 40 44  1  0  0  0  0
 40 85  1  0  0  0  0
 41 87  1  0  0  0  0
 41 88  1  0  0  0  0
 41 89  1  0  0  0  0
 42 48  1  0  0  0  0
 42 49  1  0  0  0  0
 42 90  1  0  0  0  0
 43 47  1  0  0  0  0
 43 91  1  0  0  0  0
 43 92  1  0  0  0  0
 45 95  1  0  0  0  0
 46 50  1  0  0  0  0
 46 52  1  0  0  0  0
 46 97  1  0  0  0  0
 47 54  2  0  0  0  0
 47 55  1  0  0  0  0
 48 98  1  0  0  0  0
 48 99  1  0  0  0  0
 48100  1  0  0  0  0
 49101  1  0  0  0  0
 49102  1  0  0  0  0
 49103  1  0  0  0  0
 51106  1  0  0  0  0
 52 53  1  0  0  0  0
 52104  1  0  0  0  0
 52105  1  0  0  0  0
 53 56  1  0  0  0  0
 53107  1  0  0  0  0
 53108  1  0  0  0  0
 54 58  1  0  0  0  0
 54110  1  0  0  0  0
 55 59  2  0  0  0  0
 55111  1  0  0  0  0
 56112  1  0  0  0  0
 56113  1  0  0  0  0
 57 60  1  0  0  0  0
 58 61  2  0  0  0  0
 58115  1  0  0  0  0
 59 61  1  0  0  0  0
 59116  1  0  0  0  0
 60 62  1  0  0  0  0
 60114  1  0  0  0  0
 62 63  1  0  0  0  0
 62117  1  0  0  0  0
 62118  1  0  0  0  0
M  END
> <PUBCHEM_COMPOUND_CID>
123805

> <PUBCHEM_COMPOUND_CANONICALIZED>
1

> <PUBCHEM_CACTVS_COMPLEXITY>
1660

> <PUBCHEM_CACTVS_HBOND_ACCEPTOR>
14

> <PUBCHEM_CACTVS_HBOND_DONOR>
12

> <PUBCHEM_CACTVS_ROTATABLE_BOND>
25

> <PUBCHEM_CACTVS_SUBSKEYS>
AAADcfB//AAAAAAAAAAAAAAAAAAAAWLAAAAwAAAAAAAAAAABwAAAHgAQCAAADSzBngQ/npfJkgCoAzX3fAACgC2xMqAJ2YG+eIiKbjrC2TOUcAAu1hPY2Ce/2aKOIAAAAAAAAABAAAAAAAAAAAAAAAAAAA==

> <PUBCHEM_IUPAC_OPENEYE_NAME>
(2S)-1-[(2S)-2-[[(2S,3S)-2-[[(2S)-2-[[(2S)-2-[[(2S)-2-[[(2S)-2-amino-3-carboxy-propanoyl]amino]-5-guanidino-pentanoyl]amino]-3-methyl-butanoyl]amino]-3-(4-hydroxyphenyl)propanoyl]amino]-3-methyl-pentanoyl]amino]-3-(1H-imidazol-5-yl)propanoyl]pyrrolidine-2-carboxylic acid

> <PUBCHEM_IUPAC_CAS_NAME>
(2S)-1-[(2S)-2-[[(2S,3S)-2-[[(2S)-2-[[(2S)-2-[[(2S)-2-[[(2S)-2-amino-3-carboxy-1-oxopropyl]amino]-5-(diaminomethylideneamino)-1-oxopentyl]amino]-3-methyl-1-oxobutyl]amino]-3-(4-hydroxyphenyl)-1-oxopropyl]amino]-3-methyl-1-oxopentyl]amino]-3-(1H-imidazol-5-yl)-1-oxopropyl]-2-pyrrolidinecarboxylic acid

> <PUBCHEM_IUPAC_NAME_MARKUP>
(2<I>S</I>)-1-[(2<I>S</I>)-2-[[(2<I>S</I>,3<I>S</I>)-2-[[(2<I>S</I>)-2-[[(2<I>S</I>)-2-[[(2<I>S</I>)-2-[[(2<I>S</I>)-2-amino-3-carboxypropanoyl]amino]-5-(diaminomethylideneamino)pentanoyl]amino]-3-methylbutanoyl]amino]-3-(4-hydroxyphenyl)propanoyl]amino]-3-methylpentanoyl]amino]-3-(1<I>H</I>-imidazol-5-yl)propanoyl]pyrrolidine-2-carboxylic acid

> <PUBCHEM_IUPAC_NAME>
(2S)-1-[(2S)-2-[[(2S,3S)-2-[[(2S)-2-[[(2S)-2-[[(2S)-2-[[(2S)-2-amino-3-carboxypropanoyl]amino]-5-(diaminomethylideneamino)pentanoyl]amino]-3-methylbutanoyl]amino]-3-(4-hydroxyphenyl)propanoyl]amino]-3-methylpentanoyl]amino]-3-(1H-imidazol-5-yl)propanoyl]pyrrolidine-2-carboxylic acid

> <PUBCHEM_IUPAC_SYSTEMATIC_NAME>
(2S)-1-[(2S)-2-[[(2S,3S)-2-[[(2S)-2-[[(2S)-2-[[(2S)-2-[[(2S)-2-azanyl-4-oxidanyl-4-oxidanylidene-butanoyl]amino]-5-[bis(azanyl)methylideneamino]pentanoyl]amino]-3-methyl-butanoyl]amino]-3-(4-hydroxyphenyl)propanoyl]amino]-3-methyl-pentanoyl]amino]-3-(1H-imidazol-5-yl)propanoyl]pyrrolidine-2-carboxylic acid

> <PUBCHEM_IUPAC_TRADITIONAL_NAME>
(2S)-1-[(2S)-2-[[(2S,3S)-2-[[(2S)-2-[[(2S)-2-[[(2S)-2-[[(2S)-2-amino-3-carboxy-propanoyl]amino]-5-guanidino-pentanoyl]amino]-3-methyl-butanoyl]amino]-3-(4-hydroxyphenyl)propanoyl]amino]-3-methyl-pentanoyl]amino]-3-(1H-imidazol-5-yl)propanoyl]proline

> <PUBCHEM_IUPAC_INCHI>
InChI=1S/C41H62N12O11/c1-5-22(4)33(38(61)50-29(17-24-19-45-20-47-24)39(62)53-15-7-9-30(53)40(63)64)52-36(59)28(16-23-10-12-25(54)13-11-23)49-37(60)32(21(2)3)51-35(58)27(8-6-14-46-41(43)44)48-34(57)26(42)18-31(55)56/h10-13,19-22,26-30,32-33,54H,5-9,14-18,42H2,1-4H3,(H,45,47)(H,48,57)(H,49,60)(H,50,61)(H,51,58)(H,52,59)(H,55,56)(H,63,64)(H4,43,44,46)/t22-,26-,27-,28-,29-,30-,32-,33-/m0/s1

> <PUBCHEM_IUPAC_INCHIKEY>
PVHLMTREZMEJCG-GDTLVBQBSA-N

> <PUBCHEM_XLOGP3_AA>
-3

> <PUBCHEM_EXACT_MASS>
898.466101

> <PUBCHEM_MOLECULAR_FORMULA>
C41H62N12O11

> <PUBCHEM_MOLECULAR_WEIGHT>
899

> <PUBCHEM_OPENEYE_CAN_SMILES>
CCC(C)C(C(=O)NC(CC1=CN=CN1)C(=O)N2CCCC2C(=O)O)NC(=O)C(CC3=CC=C(C=C3)O)NC(=O)C(C(C)C)NC(=O)C(CCCN=C(N)N)NC(=O)C(CC(=O)O)N

> <PUBCHEM_OPENEYE_ISO_SMILES>
CC[C@H](C)[C@@H](C(=O)N[C@@H](CC1=CN=CN1)C(=O)N2CCC[C@H]2C(=O)O)NC(=O)[C@H](CC3=CC=C(C=C3)O)NC(=O)[C@H](C(C)C)NC(=O)[C@H](CCCN=C(N)N)NC(=O)[C@H](CC(=O)O)N

> <PUBCHEM_CACTVS_TPSA>
380

> <PUBCHEM_MONOISOTOPIC_WEIGHT>
898.466101

> <PUBCHEM_TOTAL_CHARGE>
0

> <PUBCHEM_HEAVY_ATOM_COUNT>
64

> <PUBCHEM_ATOM_DEF_STEREO_COUNT>
8

> <PUBCHEM_ATOM_UDEF_STEREO_COUNT>
0

> <PUBCHEM_BOND_DEF_STEREO_COUNT>
0

> <PUBCHEM_BOND_UDEF_STEREO_COUNT>
0

> <PUBCHEM_ISOTOPIC_ATOM_COUNT>
0

> <PUBCHEM_COMPONENT_COUNT>
1

> <PUBCHEM_CACTVS_TAUTO_COUNT>
-1

> <PUBCHEM_COORDINATE_TYPE>
1
5
255

> <PUBCHEM_BONDANNOTATIONS>
29  13  5
31  14  6
38  15  5
16  36  8
16  51  8
40  17  5
18  45  8
18  51  8
46  19  6
60  21  6
24  30  6
33  37  6
36  45  8
47  54  8
47  55  8
54  58  8
55  59  8
58  61  8
59  61  8

$$$$
