133081967
  -OEChem-05242006102D

103105  0     1  0  0  0  0  0999 V2000
    9.4651   -0.9050    0.0000 O   0  0  0  0  0  0  0  0  0  0  0  0
   10.3312   -5.4050    0.0000 O   0  0  0  0  0  0  0  0  0  0  0  0
    8.5991   -6.4050    0.0000 O   0  0  0  0  0  0  0  0  0  0  0  0
   11.1972   -0.9050    0.0000 O   0  0  0  0  0  0  0  0  0  0  0  0
    6.0010   -3.9050    0.0000 O   0  5  0  0  0  0  0  0  0  0  0  0
    6.8671   -2.4050    0.0000 O   0  0  0  0  0  0  0  0  0  0  0  0
   12.0632   -0.4050    0.0000 O   0  0  0  0  0  0  0  0  0  0  0  0
   15.5273    2.5950    0.0000 O   0  0  0  0  0  0  0  0  0  0  0  0
    8.5991    3.5950    0.0000 O   0  0  0  0  0  0  0  0  0  0  0  0
    6.0010    1.0950    0.0000 O   0  0  0  0  0  0  0  0  0  0  0  0
   11.1972    1.0950    0.0000 N   0  0  0  0  0  0  0  0  0  0  0  0
    6.8671   -3.4050    0.0000 N   0  3  0  0  0  0  0  0  0  0  0  0
    9.4651    2.0950    0.0000 N   0  0  0  0  0  0  0  0  0  0  0  0
    6.8671    2.5950    0.0000 N   0  0  0  0  0  0  0  0  0  0  0  0
   18.9914    2.5950    0.0000 N   0  0  0  0  0  0  0  0  0  0  0  0
   19.8574    2.0950    0.0000 N   0  3  0  0  0  0  0  0  0  0  0  0
    4.2690    5.0950    0.0000 N   0  0  0  0  0  0  0  0  0  0  0  0
   20.7235    1.5950    0.0000 N   0  5  0  0  0  0  0  0  0  0  0  0
    3.4030    6.5950    0.0000 N   0  0  0  0  0  0  0  0  0  0  0  0
    2.5369    5.0950    0.0000 N   0  0  0  0  0  0  0  0  0  0  0  0
    8.5991   -2.4050    0.0000 C   0  0  3  0  0  0  0  0  0  0  0  0
    9.4651   -1.9050    0.0000 C   0  0  3  0  0  0  0  0  0  0  0  0
    8.5991   -3.4050    0.0000 C   0  0  0  0  0  0  0  0  0  0  0  0
    7.7331   -1.9050    0.0000 C   0  0  0  0  0  0  0  0  0  0  0  0
   10.3312   -2.4050    0.0000 C   0  0  0  0  0  0  0  0  0  0  0  0
    7.7331   -3.9050    0.0000 C   0  0  0  0  0  0  0  0  0  0  0  0
   10.3312    0.5950    0.0000 C   0  0  3  0  0  0  0  0  0  0  0  0
    9.4651   -3.9050    0.0000 C   0  0  0  0  0  0  0  0  0  0  0  0
   10.3312   -0.4050    0.0000 C   0  0  0  0  0  0  0  0  0  0  0  0
    9.4651    1.0950    0.0000 C   0  0  0  0  0  0  0  0  0  0  0  0
    9.4651   -4.9050    0.0000 C   0  0  0  0  0  0  0  0  0  0  0  0
    7.7331   -4.9050    0.0000 C   0  0  0  0  0  0  0  0  0  0  0  0
    8.5991   -5.4050    0.0000 C   0  0  0  0  0  0  0  0  0  0  0  0
   12.0632    0.5950    0.0000 C   0  0  0  0  0  0  0  0  0  0  0  0
   12.9292    1.0950    0.0000 C   0  0  0  0  0  0  0  0  0  0  0  0
   13.7953    0.5950    0.0000 C   0  0  0  0  0  0  0  0  0  0  0  0
   12.9292    2.0950    0.0000 C   0  0  0  0  0  0  0  0  0  0  0  0
    8.5991    2.5950    0.0000 C   0  0  0  0  0  0  0  0  0  0  0  0
   14.6613    1.0950    0.0000 C   0  0  0  0  0  0  0  0  0  0  0  0
   13.7953    2.5950    0.0000 C   0  0  0  0  0  0  0  0  0  0  0  0
   14.6613    2.0950    0.0000 C   0  0  0  0  0  0  0  0  0  0  0  0
   13.7953   -0.4050    0.0000 C   0  0  0  0  0  0  0  0  0  0  0  0
   12.0632    2.5950    0.0000 C   0  0  0  0  0  0  0  0  0  0  0  0
   11.1972   -4.9050    0.0000 C   0  0  0  0  0  0  0  0  0  0  0  0
    7.7331    2.0950    0.0000 C   0  0  0  0  0  0  0  0  0  0  0  0
    7.7331   -6.9050    0.0000 C   0  0  0  0  0  0  0  0  0  0  0  0
   16.3933    2.0950    0.0000 C   0  0  0  0  0  0  0  0  0  0  0  0
   17.2594    2.5950    0.0000 C   0  0  0  0  0  0  0  0  0  0  0  0
   18.1254    2.0950    0.0000 C   0  0  0  0  0  0  0  0  0  0  0  0
    6.0010    2.0950    0.0000 C   0  0  0  0  0  0  0  0  0  0  0  0
    5.1350    2.5950    0.0000 C   0  0  0  0  0  0  0  0  0  0  0  0
    5.1350    3.5950    0.0000 C   0  0  0  0  0  0  0  0  0  0  0  0
    4.2690    2.0950    0.0000 C   0  0  0  0  0  0  0  0  0  0  0  0
    4.2690    4.0950    0.0000 C   0  0  0  0  0  0  0  0  0  0  0  0
    3.4030    2.5950    0.0000 C   0  0  0  0  0  0  0  0  0  0  0  0
    3.4030    3.5950    0.0000 C   0  0  0  0  0  0  0  0  0  0  0  0
    3.4030    5.5950    0.0000 C   0  0  0  0  0  0  0  0  0  0  0  0
    8.5991   -1.7850    0.0000 H   0  0  0  0  0  0  0  0  0  0  0  0
   10.0021   -1.5950    0.0000 H   0  0  0  0  0  0  0  0  0  0  0  0
    8.0431   -1.3681    0.0000 H   0  0  0  0  0  0  0  0  0  0  0  0
    7.1962   -1.5950    0.0000 H   0  0  0  0  0  0  0  0  0  0  0  0
    7.4231   -2.4419    0.0000 H   0  0  0  0  0  0  0  0  0  0  0  0
   10.0212   -2.9419    0.0000 H   0  0  0  0  0  0  0  0  0  0  0  0
   10.8681   -2.7150    0.0000 H   0  0  0  0  0  0  0  0  0  0  0  0
   10.6412   -1.8681    0.0000 H   0  0  0  0  0  0  0  0  0  0  0  0
   10.8681    0.2850    0.0000 H   0  0  0  0  0  0  0  0  0  0  0  0
   10.0021   -3.5950    0.0000 H   0  0  0  0  0  0  0  0  0  0  0  0
    8.8546    1.2027    0.0000 H   0  0  0  0  0  0  0  0  0  0  0  0
    9.2531    0.5124    0.0000 H   0  0  0  0  0  0  0  0  0  0  0  0
    7.1962   -5.2150    0.0000 H   0  0  0  0  0  0  0  0  0  0  0  0
   11.1972    1.7150    0.0000 H   0  0  0  0  0  0  0  0  0  0  0  0
   10.0021    2.4050    0.0000 H   0  0  0  0  0  0  0  0  0  0  0  0
   15.1982    0.7850    0.0000 H   0  0  0  0  0  0  0  0  0  0  0  0
   13.7953    3.2150    0.0000 H   0  0  0  0  0  0  0  0  0  0  0  0
   13.1753   -0.4050    0.0000 H   0  0  0  0  0  0  0  0  0  0  0  0
   13.7953   -1.0250    0.0000 H   0  0  0  0  0  0  0  0  0  0  0  0
   14.4153   -0.4050    0.0000 H   0  0  0  0  0  0  0  0  0  0  0  0
   12.3732    3.1319    0.0000 H   0  0  0  0  0  0  0  0  0  0  0  0
   11.5263    2.9050    0.0000 H   0  0  0  0  0  0  0  0  0  0  0  0
   11.7532    2.0581    0.0000 H   0  0  0  0  0  0  0  0  0  0  0  0
    7.3346    1.6200    0.0000 H   0  0  0  0  0  0  0  0  0  0  0  0
    8.1316    1.6200    0.0000 H   0  0  0  0  0  0  0  0  0  0  0  0
   11.5072   -5.4419    0.0000 H   0  0  0  0  0  0  0  0  0  0  0  0
   11.7341   -4.5950    0.0000 H   0  0  0  0  0  0  0  0  0  0  0  0
   10.8872   -4.3681    0.0000 H   0  0  0  0  0  0  0  0  0  0  0  0
    7.4231   -6.3681    0.0000 H   0  0  0  0  0  0  0  0  0  0  0  0
    7.1962   -7.2150    0.0000 H   0  0  0  0  0  0  0  0  0  0  0  0
    8.0431   -7.4419    0.0000 H   0  0  0  0  0  0  0  0  0  0  0  0
   15.9948    1.6200    0.0000 H   0  0  0  0  0  0  0  0  0  0  0  0
   16.7919    1.6200    0.0000 H   0  0  0  0  0  0  0  0  0  0  0  0
    6.8671    3.2150    0.0000 H   0  0  0  0  0  0  0  0  0  0  0  0
   17.6579    3.0700    0.0000 H   0  0  0  0  0  0  0  0  0  0  0  0
   16.8608    3.0700    0.0000 H   0  0  0  0  0  0  0  0  0  0  0  0
   17.7269    1.6200    0.0000 H   0  0  0  0  0  0  0  0  0  0  0  0
   18.5239    1.6200    0.0000 H   0  0  0  0  0  0  0  0  0  0  0  0
    5.6720    3.9050    0.0000 H   0  0  0  0  0  0  0  0  0  0  0  0
    4.2690    1.4750    0.0000 H   0  0  0  0  0  0  0  0  0  0  0  0
    2.8660    2.2850    0.0000 H   0  0  0  0  0  0  0  0  0  0  0  0
    2.8660    3.9050    0.0000 H   0  0  0  0  0  0  0  0  0  0  0  0
    2.8660    6.9050    0.0000 H   0  0  0  0  0  0  0  0  0  0  0  0
    3.9399    6.9050    0.0000 H   0  0  0  0  0  0  0  0  0  0  0  0
    2.0000    5.4050    0.0000 H   0  0  0  0  0  0  0  0  0  0  0  0
    2.5369    4.4750    0.0000 H   0  0  0  0  0  0  0  0  0  0  0  0
  1 22  1  0  0  0  0
  1 29  1  0  0  0  0
  2 31  1  0  0  0  0
  2 44  1  0  0  0  0
  3 33  1  0  0  0  0
  3 46  1  0  0  0  0
  4 29  2  0  0  0  0
  5 12  1  0  0  0  0
  6 12  2  0  0  0  0
  7 34  2  0  0  0  0
  8 41  1  0  0  0  0
  8 47  1  0  0  0  0
  9 38  2  0  0  0  0
 10 50  2  0  0  0  0
 11 27  1  0  0  0  0
 11 34  1  0  0  0  0
 11 71  1  0  0  0  0
 12 26  1  0  0  0  0
 13 30  1  0  0  0  0
 13 38  1  0  0  0  0
 13 72  1  0  0  0  0
 14 45  1  0  0  0  0
 14 50  1  0  0  0  0
 14 91  1  0  0  0  0
 15 16  2  0  0  0  0
 15 49  1  0  0  0  0
 16 18  2  0  0  0  0
 17 54  1  0  0  0  0
 17 57  2  0  0  0  0
 19 57  1  0  0  0  0
 19100  1  0  0  0  0
 19101  1  0  0  0  0
 20 57  1  0  0  0  0
 20102  1  0  0  0  0
 20103  1  0  0  0  0
 21 22  1  0  0  0  0
 21 23  1  0  0  0  0
 21 24  1  0  0  0  0
 21 58  1  0  0  0  0
 22 25  1  0  0  0  0
 22 59  1  0  0  0  0
 23 26  1  0  0  0  0
 23 28  2  0  0  0  0
 24 60  1  0  0  0  0
 24 61  1  0  0  0  0
 24 62  1  0  0  0  0
 25 63  1  0  0  0  0
 25 64  1  0  0  0  0
 25 65  1  0  0  0  0
 26 32  2  0  0  0  0
 27 29  1  0  0  0  0
 27 30  1  0  0  0  0
 27 66  1  0  0  0  0
 28 31  1  0  0  0  0
 28 67  1  0  0  0  0
 30 68  1  0  0  0  0
 30 69  1  0  0  0  0
 31 33  2  0  0  0  0
 32 33  1  0  0  0  0
 32 70  1  0  0  0  0
 34 35  1  0  0  0  0
 35 36  2  0  0  0  0
 35 37  1  0  0  0  0
 36 39  1  0  0  0  0
 36 42  1  0  0  0  0
 37 40  2  0  0  0  0
 37 43  1  0  0  0  0
 38 45  1  0  0  0  0
 39 41  2  0  0  0  0
 39 73  1  0  0  0  0
 40 41  1  0  0  0  0
 40 74  1  0  0  0  0
 42 75  1  0  0  0  0
 42 76  1  0  0  0  0
 42 77  1  0  0  0  0
 43 78  1  0  0  0  0
 43 79  1  0  0  0  0
 43 80  1  0  0  0  0
 44 83  1  0  0  0  0
 44 84  1  0  0  0  0
 44 85  1  0  0  0  0
 45 81  1  0  0  0  0
 45 82  1  0  0  0  0
 46 86  1  0  0  0  0
 46 87  1  0  0  0  0
 46 88  1  0  0  0  0
 47 48  1  0  0  0  0
 47 89  1  0  0  0  0
 47 90  1  0  0  0  0
 48 49  1  0  0  0  0
 48 92  1  0  0  0  0
 48 93  1  0  0  0  0
 49 94  1  0  0  0  0
 49 95  1  0  0  0  0
 50 51  1  0  0  0  0
 51 52  2  0  0  0  0
 51 53  1  0  0  0  0
 52 54  1  0  0  0  0
 52 96  1  0  0  0  0
 53 55  2  0  0  0  0
 53 97  1  0  0  0  0
 54 56  2  0  0  0  0
 55 56  1  0  0  0  0
 55 98  1  0  0  0  0
 56 99  1  0  0  0  0
M  CHG  4   5  -1  12   1  16   1  18  -1
M  END
> <PUBCHEM_COMPOUND_CID>
133081967

> <PUBCHEM_COMPOUND_CANONICALIZED>
1

> <PUBCHEM_CACTVS_COMPLEXITY>
1430

> <PUBCHEM_CACTVS_HBOND_ACCEPTOR>
13

> <PUBCHEM_CACTVS_HBOND_DONOR>
5

> <PUBCHEM_CACTVS_ROTATABLE_BOND>
20

> <PUBCHEM_CACTVS_SUBSKEYS>
AAADcfB//AAAAAAAAAAAAAAAAAAAAAAAAAAwYMAAAAAAAAABUAAAHgAcAAAADTzhmAYzzoLQRACrAiXSfwCCCAEkIgAoiIGO7MoPZjqEtbuXOSrm1hma6Ye8/P/OoEADQgASQABAgAaEACSAAAAAAAAAAA==

> <PUBCHEM_IUPAC_OPENEYE_NAME>
[2-(4,5-dimethoxy-2-nitro-phenyl)-1-methyl-propyl] 2-[[4-(3-azidopropoxy)-2,6-dimethyl-benzoyl]amino]-3-[[2-[(3-guanidinobenzoyl)amino]acetyl]amino]propanoate

> <PUBCHEM_IUPAC_CAS_NAME>
2-[[[4-(3-azidopropoxy)-2,6-dimethylphenyl]-oxomethyl]amino]-3-[[2-[[[3-(diaminomethylideneamino)phenyl]-oxomethyl]amino]-1-oxoethyl]amino]propanoic acid 3-(4,5-dimethoxy-2-nitrophenyl)butan-2-yl ester

> <PUBCHEM_IUPAC_NAME_MARKUP>
3-(4,5-dimethoxy-2-nitrophenyl)butan-2-yl 2-[[4-(3-azidopropoxy)-2,6-dimethylbenzoyl]amino]-3-[[2-[[3-(diaminomethylideneamino)benzoyl]amino]acetyl]amino]propanoate

> <PUBCHEM_IUPAC_NAME>
3-(4,5-dimethoxy-2-nitrophenyl)butan-2-yl 2-[[4-(3-azidopropoxy)-2,6-dimethylbenzoyl]amino]-3-[[2-[[3-(diaminomethylideneamino)benzoyl]amino]acetyl]amino]propanoate

> <PUBCHEM_IUPAC_SYSTEMATIC_NAME>
3-(4,5-dimethoxy-2-nitro-phenyl)butan-2-yl 2-[[4-(3-azidopropoxy)-2,6-dimethyl-phenyl]carbonylamino]-3-[2-[[3-[bis(azanyl)methylideneamino]phenyl]carbonylamino]ethanoylamino]propanoate

> <PUBCHEM_IUPAC_TRADITIONAL_NAME>
2-[[4-(3-azidopropoxy)-2,6-dimethyl-benzoyl]amino]-3-[[2-[(3-guanidinobenzoyl)amino]acetyl]amino]propionic acid [2-(4,5-dimethoxy-2-nitro-phenyl)-1-methyl-propyl] ester

> <PUBCHEM_IUPAC_INCHI>
InChI=1S/C37H46N10O10/c1-20-13-26(56-12-8-11-43-46-40)14-21(2)33(20)35(50)45-28(18-41-32(48)19-42-34(49)24-9-7-10-25(15-24)44-37(38)39)36(51)57-23(4)22(3)27-16-30(54-5)31(55-6)17-29(27)47(52)53/h7,9-10,13-17,22-23,28H,8,11-12,18-19H2,1-6H3,(H,41,48)(H,42,49)(H,45,50)(H4,38,39,44)

> <PUBCHEM_IUPAC_INCHIKEY>
CCIKYPZLPYEMFX-UHFFFAOYSA-N

> <PUBCHEM_XLOGP3_AA>
4.4

> <PUBCHEM_EXACT_MASS>
790.339838

> <PUBCHEM_MOLECULAR_FORMULA>
C37H46N10O10

> <PUBCHEM_MOLECULAR_WEIGHT>
790.8

> <PUBCHEM_OPENEYE_CAN_SMILES>
CC1=CC(=CC(=C1C(=O)NC(CNC(=O)CNC(=O)C2=CC(=CC=C2)N=C(N)N)C(=O)OC(C)C(C)C3=CC(=C(C=C3[N+](=O)[O-])OC)OC)C)OCCCN=[N+]=[N-]

> <PUBCHEM_OPENEYE_ISO_SMILES>
CC1=CC(=CC(=C1C(=O)NC(CNC(=O)CNC(=O)C2=CC(=CC=C2)N=C(N)N)C(=O)OC(C)C(C)C3=CC(=C(C=C3[N+](=O)[O-])OC)OC)C)OCCCN=[N+]=[N-]

> <PUBCHEM_CACTVS_TPSA>
266

> <PUBCHEM_MONOISOTOPIC_WEIGHT>
790.339838

> <PUBCHEM_TOTAL_CHARGE>
0

> <PUBCHEM_HEAVY_ATOM_COUNT>
57

> <PUBCHEM_ATOM_DEF_STEREO_COUNT>
0

> <PUBCHEM_ATOM_UDEF_STEREO_COUNT>
3

> <PUBCHEM_BOND_DEF_STEREO_COUNT>
0

> <PUBCHEM_BOND_UDEF_STEREO_COUNT>
0

> <PUBCHEM_ISOTOPIC_ATOM_COUNT>
0

> <PUBCHEM_COMPONENT_COUNT>
1

> <PUBCHEM_CACTVS_TAUTO_COUNT>
-1

> <PUBCHEM_COORDINATE_TYPE>
1
5
255

> <PUBCHEM_BONDANNOTATIONS>
21  24  3
22  25  3
23  26  8
23  28  8
26  32  8
27  30  3
28  31  8
31  33  8
32  33  8
35  36  8
35  37  8
36  39  8
37  40  8
39  41  8
40  41  8
51  52  8
51  53  8
52  54  8
53  55  8
54  56  8
55  56  8

$$$$
