135413523
  -OEChem-05242006142D

 84 86  0     0  0  0  0  0  0999 V2000
    4.0010    2.8446    0.0000 S   0  0  0  0  0  0  0  0  0  0  0  0
    3.5010    3.7106    0.0000 O   0  0  0  0  0  0  0  0  0  0  0  0
    4.5010    1.9786    0.0000 O   0  0  0  0  0  0  0  0  0  0  0  0
    7.4651    4.8446    0.0000 O   0  0  0  0  0  0  0  0  0  0  0  0
    8.3312    0.3446    0.0000 O   0  0  0  0  0  0  0  0  0  0  0  0
    6.6663   10.0145    0.0000 O   0  0  0  0  0  0  0  0  0  0  0  0
    7.8983   10.8805    0.0000 O   0  0  0  0  0  0  0  0  0  0  0  0
    7.0323   12.3805    0.0000 O   0  0  0  0  0  0  0  0  0  0  0  0
    4.4342    8.8805    0.0000 O   0  0  0  0  0  0  0  0  0  0  0  0
    4.1663   12.6126    0.0000 O   0  0  0  0  0  0  0  0  0  0  0  0
    6.1663    8.8805    0.0000 O   0  0  0  0  0  0  0  0  0  0  0  0
    4.1663   10.8805    0.0000 O   0  0  0  0  0  0  0  0  0  0  0  0
    3.1350    2.3446    0.0000 N   0  0  0  0  0  0  0  0  0  0  0  0
    1.4030    1.3446    0.0000 N   0  0  0  0  0  0  0  0  0  0  0  0
    7.4651    1.8446    0.0000 N   0  0  0  0  0  0  0  0  0  0  0  0
    8.3312    3.3446    0.0000 N   0  0  0  0  0  0  0  0  0  0  0  0
   10.1434    1.5398    0.0000 N   0  0  0  0  0  0  0  0  0  0  0  0
   10.7270    2.3446    0.0000 N   0  0  0  0  0  0  0  0  0  0  0  0
    2.2690    2.8446    0.0000 C   0  0  0  0  0  0  0  0  0  0  0  0
    3.1350    1.3446    0.0000 C   0  0  0  0  0  0  0  0  0  0  0  0
    1.4030    2.3446    0.0000 C   0  0  0  0  0  0  0  0  0  0  0  0
    2.2690    0.8446    0.0000 C   0  0  0  0  0  0  0  0  0  0  0  0
    4.8671    3.3446    0.0000 C   0  0  0  0  0  0  0  0  0  0  0  0
    0.5369    0.8446    0.0000 C   0  0  0  0  0  0  0  0  0  0  0  0
    5.7331    2.8446    0.0000 C   0  0  0  0  0  0  0  0  0  0  0  0
    4.8671    4.3446    0.0000 C   0  0  0  0  0  0  0  0  0  0  0  0
    6.5991    3.3446    0.0000 C   0  0  0  0  0  0  0  0  0  0  0  0
    6.5991    4.3446    0.0000 C   0  0  0  0  0  0  0  0  0  0  0  0
    5.7331    4.8446    0.0000 C   0  0  0  0  0  0  0  0  0  0  0  0
    7.4651    2.8446    0.0000 C   0  0  0  0  0  0  0  0  0  0  0  0
    9.1972    2.8446    0.0000 C   0  0  0  0  0  0  0  0  0  0  0  0
    9.1972    1.8446    0.0000 C   0  0  0  0  0  0  0  0  0  0  0  0
   10.1434    3.1493    0.0000 C   0  0  0  0  0  0  0  0  0  0  0  0
   10.4541    4.0998    0.0000 C   0  0  0  0  0  0  0  0  0  0  0  0
    8.3312    1.3446    0.0000 C   0  0  0  0  0  0  0  0  0  0  0  0
   11.4326    4.3060    0.0000 C   0  0  0  0  0  0  0  0  0  0  0  0
   10.4541    0.5893    0.0000 C   0  0  0  0  0  0  0  0  0  0  0  0
    7.4651    5.8446    0.0000 C   0  0  0  0  0  0  0  0  0  0  0  0
   11.7432    5.2566    0.0000 C   0  0  0  0  0  0  0  0  0  0  0  0
    6.1663   10.8805    0.0000 C   0  0  0  0  0  0  0  0  0  0  0  0
    8.3312    6.3446    0.0000 C   0  0  0  0  0  0  0  0  0  0  0  0
    5.3003   10.3805    0.0000 C   0  0  0  0  0  0  0  0  0  0  0  0
    5.6663   11.7465    0.0000 C   0  0  0  0  0  0  0  0  0  0  0  0
    7.0323   11.3805    0.0000 C   0  0  0  0  0  0  0  0  0  0  0  0
    5.3003    9.3805    0.0000 C   0  0  0  0  0  0  0  0  0  0  0  0
    4.6663   11.7465    0.0000 C   0  0  0  0  0  0  0  0  0  0  0  0
    2.6675    3.3195    0.0000 H   0  0  0  0  0  0  0  0  0  0  0  0
    1.8705    3.3195    0.0000 H   0  0  0  0  0  0  0  0  0  0  0  0
    3.3471    0.7620    0.0000 H   0  0  0  0  0  0  0  0  0  0  0  0
    3.7456    1.4522    0.0000 H   0  0  0  0  0  0  0  0  0  0  0  0
    1.1909    2.9272    0.0000 H   0  0  0  0  0  0  0  0  0  0  0  0
    0.7924    2.2369    0.0000 H   0  0  0  0  0  0  0  0  0  0  0  0
    1.8705    0.3696    0.0000 H   0  0  0  0  0  0  0  0  0  0  0  0
    2.6675    0.3696    0.0000 H   0  0  0  0  0  0  0  0  0  0  0  0
    0.2269    1.3815    0.0000 H   0  0  0  0  0  0  0  0  0  0  0  0
    0.0000    0.5346    0.0000 H   0  0  0  0  0  0  0  0  0  0  0  0
    0.8469    0.3076    0.0000 H   0  0  0  0  0  0  0  0  0  0  0  0
    5.7331    2.2246    0.0000 H   0  0  0  0  0  0  0  0  0  0  0  0
    4.3301    4.6546    0.0000 H   0  0  0  0  0  0  0  0  0  0  0  0
    5.7331    5.4646    0.0000 H   0  0  0  0  0  0  0  0  0  0  0  0
    6.9282    1.5346    0.0000 H   0  0  0  0  0  0  0  0  0  0  0  0
   10.4335    4.7195    0.0000 H   0  0  0  0  0  0  0  0  0  0  0  0
    9.8403    4.1872    0.0000 H   0  0  0  0  0  0  0  0  0  0  0  0
   11.4531    3.6864    0.0000 H   0  0  0  0  0  0  0  0  0  0  0  0
   12.0464    4.2187    0.0000 H   0  0  0  0  0  0  0  0  0  0  0  0
    9.8648    0.3967    0.0000 H   0  0  0  0  0  0  0  0  0  0  0  0
   10.6467    0.0000    0.0000 H   0  0  0  0  0  0  0  0  0  0  0  0
   11.0434    0.7819    0.0000 H   0  0  0  0  0  0  0  0  0  0  0  0
    7.2531    6.4272    0.0000 H   0  0  0  0  0  0  0  0  0  0  0  0
    6.8546    5.7369    0.0000 H   0  0  0  0  0  0  0  0  0  0  0  0
   12.3326    5.0640    0.0000 H   0  0  0  0  0  0  0  0  0  0  0  0
   11.9359    5.8459    0.0000 H   0  0  0  0  0  0  0  0  0  0  0  0
   11.1539    5.4492    0.0000 H   0  0  0  0  0  0  0  0  0  0  0  0
    8.6412    5.8076    0.0000 H   0  0  0  0  0  0  0  0  0  0  0  0
    8.8681    6.6546    0.0000 H   0  0  0  0  0  0  0  0  0  0  0  0
    8.0212    6.8815    0.0000 H   0  0  0  0  0  0  0  0  0  0  0  0
    5.0882   10.9631    0.0000 H   0  0  0  0  0  0  0  0  0  0  0  0
    4.6897   10.2729    0.0000 H   0  0  0  0  0  0  0  0  0  0  0  0
    6.2489   11.9586    0.0000 H   0  0  0  0  0  0  0  0  0  0  0  0
    5.5586   12.3571    0.0000 H   0  0  0  0  0  0  0  0  0  0  0  0
    6.3563    9.4776    0.0000 H   0  0  0  0  0  0  0  0  0  0  0  0
    8.4353   11.1905    0.0000 H   0  0  0  0  0  0  0  0  0  0  0  0
    3.8973    9.1905    0.0000 H   0  0  0  0  0  0  0  0  0  0  0  0
    4.4763   13.1495    0.0000 H   0  0  0  0  0  0  0  0  0  0  0  0
  1  2  2  0  0  0  0
  1  3  2  0  0  0  0
  1 13  1  0  0  0  0
  1 23  1  0  0  0  0
  4 28  1  0  0  0  0
  4 38  1  0  0  0  0
  5 35  2  0  0  0  0
  6 40  1  0  0  0  0
  6 81  1  0  0  0  0
  7 44  1  0  0  0  0
  7 82  1  0  0  0  0
  8 44  2  0  0  0  0
  9 45  1  0  0  0  0
  9 83  1  0  0  0  0
 10 46  1  0  0  0  0
 10 84  1  0  0  0  0
 11 45  2  0  0  0  0
 12 46  2  0  0  0  0
 13 19  1  0  0  0  0
 13 20  1  0  0  0  0
 14 21  1  0  0  0  0
 14 22  1  0  0  0  0
 14 24  1  0  0  0  0
 15 30  1  0  0  0  0
 15 35  1  0  0  0  0
 15 61  1  0  0  0  0
 16 30  2  0  0  0  0
 16 31  1  0  0  0  0
 17 18  1  0  0  0  0
 17 32  1  0  0  0  0
 17 37  1  0  0  0  0
 18 33  2  0  0  0  0
 19 21  1  0  0  0  0
 19 47  1  0  0  0  0
 19 48  1  0  0  0  0
 20 22  1  0  0  0  0
 20 49  1  0  0  0  0
 20 50  1  0  0  0  0
 21 51  1  0  0  0  0
 21 52  1  0  0  0  0
 22 53  1  0  0  0  0
 22 54  1  0  0  0  0
 23 25  2  0  0  0  0
 23 26  1  0  0  0  0
 24 55  1  0  0  0  0
 24 56  1  0  0  0  0
 24 57  1  0  0  0  0
 25 27  1  0  0  0  0
 25 58  1  0  0  0  0
 26 29  2  0  0  0  0
 26 59  1  0  0  0  0
 27 28  2  0  0  0  0
 27 30  1  0  0  0  0
 28 29  1  0  0  0  0
 29 60  1  0  0  0  0
 31 32  2  0  0  0  0
 31 33  1  0  0  0  0
 32 35  1  0  0  0  0
 33 34  1  0  0  0  0
 34 36  1  0  0  0  0
 34 62  1  0  0  0  0
 34 63  1  0  0  0  0
 36 39  1  0  0  0  0
 36 64  1  0  0  0  0
 36 65  1  0  0  0  0
 37 66  1  0  0  0  0
 37 67  1  0  0  0  0
 37 68  1  0  0  0  0
 38 41  1  0  0  0  0
 38 69  1  0  0  0  0
 38 70  1  0  0  0  0
 39 71  1  0  0  0  0
 39 72  1  0  0  0  0
 39 73  1  0  0  0  0
 40 42  1  0  0  0  0
 40 43  1  0  0  0  0
 40 44  1  0  0  0  0
 41 74  1  0  0  0  0
 41 75  1  0  0  0  0
 41 76  1  0  0  0  0
 42 45  1  0  0  0  0
 42 77  1  0  0  0  0
 42 78  1  0  0  0  0
 43 46  1  0  0  0  0
 43 79  1  0  0  0  0
 43 80  1  0  0  0  0
M  END
> <PUBCHEM_COMPOUND_CID>
135413523

> <PUBCHEM_COMPOUND_CANONICALIZED>
1

> <PUBCHEM_CACTVS_COMPLEXITY>
1070

> <PUBCHEM_CACTVS_HBOND_ACCEPTOR>
15

> <PUBCHEM_CACTVS_HBOND_DONOR>
5

> <PUBCHEM_CACTVS_ROTATABLE_BOND>
12

> <PUBCHEM_CACTVS_SUBSKEYS>
AAADcfB7vABAAAAAAAAAAAAAAAAAAWAAAAA8QIAAAAAAAEABwAAAHgQYSAAADEzh3gYzz5PIBgKqAyfyfHLSDBEnsAAZ2Dn+XNgNZr7E/fuW/ajn7BHJ6Uff7iCOAIAAgAAIAAABAAEAABAAAAAAAAAAAA==

> <PUBCHEM_IUPAC_OPENEYE_NAME>
citric acid;5-[2-ethoxy-5-(4-methylpiperazin-1-yl)sulfonyl-phenyl]-1-methyl-3-propyl-6H-pyrazolo[4,3-d]pyrimidin-7-one

> <PUBCHEM_IUPAC_CAS_NAME>
5-[2-ethoxy-5-[(4-methyl-1-piperazinyl)sulfonyl]phenyl]-1-methyl-3-propyl-6H-pyrazolo[4,3-d]pyrimidin-7-one;2-hydroxypropane-1,2,3-tricarboxylic acid

> <PUBCHEM_IUPAC_NAME_MARKUP>
5-[2-ethoxy-5-(4-methylpiperazin-1-yl)sulfonylphenyl]-1-methyl-3-propyl-6<I>H</I>-pyrazolo[4,3-d]pyrimidin-7-one;2-hydroxypropane-1,2,3-tricarboxylic acid

> <PUBCHEM_IUPAC_NAME>
5-[2-ethoxy-5-(4-methylpiperazin-1-yl)sulfonylphenyl]-1-methyl-3-propyl-6H-pyrazolo[4,3-d]pyrimidin-7-one;2-hydroxypropane-1,2,3-tricarboxylic acid

> <PUBCHEM_IUPAC_SYSTEMATIC_NAME>
5-[2-ethoxy-5-(4-methylpiperazin-1-yl)sulfonyl-phenyl]-1-methyl-3-propyl-6H-pyrazolo[4,3-d]pyrimidin-7-one;2-oxidanylpropane-1,2,3-tricarboxylic acid

> <PUBCHEM_IUPAC_TRADITIONAL_NAME>
citric acid;5-[2-ethoxy-5-(4-methylpiperazino)sulfonyl-phenyl]-1-methyl-3-propyl-6H-pyrazolo[4,3-d]pyrimidin-7-one

> <PUBCHEM_IUPAC_INCHI>
InChI=1S/C22H30N6O4S.C6H8O7/c1-5-7-17-19-20(27(4)25-17)22(29)24-21(23-19)16-14-15(8-9-18(16)32-6-2)33(30,31)28-12-10-26(3)11-13-28;7-3(8)1-6(13,5(11)12)2-4(9)10/h8-9,14H,5-7,10-13H2,1-4H3,(H,23,24,29);13H,1-2H2,(H,7,8)(H,9,10)(H,11,12)

> <PUBCHEM_IUPAC_INCHIKEY>
DEIYFTQMQPDXOT-UHFFFAOYSA-N

> <PUBCHEM_EXACT_MASS>
666.231927

> <PUBCHEM_MOLECULAR_FORMULA>
C28H38N6O11S

> <PUBCHEM_MOLECULAR_WEIGHT>
666.7

> <PUBCHEM_OPENEYE_CAN_SMILES>
CCCC1=NN(C2=C1N=C(NC2=O)C3=C(C=CC(=C3)S(=O)(=O)N4CCN(CC4)C)OCC)C.C(C(=O)O)C(CC(=O)O)(C(=O)O)O

> <PUBCHEM_OPENEYE_ISO_SMILES>
CCCC1=NN(C2=C1N=C(NC2=O)C3=C(C=CC(=C3)S(=O)(=O)N4CCN(CC4)C)OCC)C.C(C(=O)O)C(CC(=O)O)(C(=O)O)O

> <PUBCHEM_CACTVS_TPSA>
250

> <PUBCHEM_MONOISOTOPIC_WEIGHT>
666.231927

> <PUBCHEM_TOTAL_CHARGE>
0

> <PUBCHEM_HEAVY_ATOM_COUNT>
46

> <PUBCHEM_ATOM_DEF_STEREO_COUNT>
0

> <PUBCHEM_ATOM_UDEF_STEREO_COUNT>
0

> <PUBCHEM_BOND_DEF_STEREO_COUNT>
0

> <PUBCHEM_BOND_UDEF_STEREO_COUNT>
0

> <PUBCHEM_ISOTOPIC_ATOM_COUNT>
0

> <PUBCHEM_COMPONENT_COUNT>
2

> <PUBCHEM_CACTVS_TAUTO_COUNT>
-1

> <PUBCHEM_COORDINATE_TYPE>
1
5
255

> <PUBCHEM_BONDANNOTATIONS>
15  30  8
15  35  8
16  30  8
16  31  8
17  18  8
17  32  8
18  33  8
23  25  8
23  26  8
25  27  8
26  29  8
27  28  8
28  29  8
31  32  8
31  33  8
32  35  8

$$$$
