135537060
  -OEChem-05242006142D

105109  0     1  0  0  0  0  0999 V2000
    3.5843   12.3194    0.0000 P   0  0  0  0  0  0  0  0  0  0  0  0
   12.7454    0.8090    0.0000 P   0  0  0  0  0  0  0  0  0  0  0  0
   12.7454   10.6697    0.0000 P   0  0  0  0  0  0  0  0  0  0  0  0
    2.9395    8.8663    0.0000 O   0  0  0  0  0  0  0  0  0  0  0  0
   10.8843    3.2736    0.0000 O   0  0  0  0  0  0  0  0  0  0  0  0
   10.8843   13.1343    0.0000 O   0  0  0  0  0  0  0  0  0  0  0  0
    5.2855    7.7744    0.0000 O   0  0  0  0  0  0  0  0  0  0  0  0
    5.2892    9.9500    0.0000 O   0  0  0  0  0  0  0  0  0  0  0  0
    8.9875    1.5135    0.0000 O   0  0  0  0  0  0  0  0  0  0  0  0
    8.3152    3.5826    0.0000 O   0  0  0  0  0  0  0  0  0  0  0  0
    8.9875   11.3742    0.0000 O   0  0  0  0  0  0  0  0  0  0  0  0
    8.3152   13.4433    0.0000 O   0  0  0  0  0  0  0  0  0  0  0  0
    3.8917   11.3678    0.0000 O   0  0  0  0  0  0  0  0  0  0  0  0
   12.1576    1.6180    0.0000 O   0  0  0  0  0  0  0  0  0  0  0  0
   12.1576   11.4787    0.0000 O   0  0  0  0  0  0  0  0  0  0  0  0
   11.8074    4.8614    0.0000 O   0  0  0  0  0  0  0  0  0  0  0  0
   11.8074   14.7220    0.0000 O   0  0  0  0  0  0  0  0  0  0  0  0
    3.2770   13.2710    0.0000 O   0  0  0  0  0  0  0  0  0  0  0  0
    4.5359   12.6268    0.0000 O   0  0  0  0  0  0  0  0  0  0  0  0
   13.3332    0.0000    0.0000 O   0  0  0  0  0  0  0  0  0  0  0  0
   13.5544    1.3968    0.0000 O   0  0  0  0  0  0  0  0  0  0  0  0
    2.6328   12.0121    0.0000 O   0  0  0  0  0  0  0  0  0  0  0  0
    1.4030    4.3010    0.0000 O   0  0  0  0  0  0  0  0  0  0  0  0
   13.3332    9.8607    0.0000 O   0  0  0  0  0  0  0  0  0  0  0  0
   13.5544   11.2575    0.0000 O   0  0  0  0  0  0  0  0  0  0  0  0
   11.9364    0.2212    0.0000 O   0  0  0  0  0  0  0  0  0  0  0  0
   11.9364   10.0819    0.0000 O   0  0  0  0  0  0  0  0  0  0  0  0
   10.0753    7.8614    0.0000 O   0  0  0  0  0  0  0  0  0  0  0  0
    3.2152    7.1057    0.0000 N   0  0  0  0  0  0  0  0  0  0  0  0
   10.0753    4.8614    0.0000 N   0  0  0  0  0  0  0  0  0  0  0  0
   10.0753   14.7220    0.0000 N   0  0  0  0  0  0  0  0  0  0  0  0
    3.2152    5.4962    0.0000 N   0  0  0  0  0  0  0  0  0  0  0  0
    1.4030    7.3010    0.0000 N   0  0  0  0  0  0  0  0  0  0  0  0
   10.9413    6.3614    0.0000 N   0  0  0  0  0  0  0  0  0  0  0  0
   10.9413   16.2220    0.0000 N   0  0  0  0  0  0  0  0  0  0  0  0
    0.5369    5.8010    0.0000 N   0  0  0  0  0  0  0  0  0  0  0  0
   10.0753   17.7220    0.0000 N   0  0  0  0  0  0  0  0  0  0  0  0
    4.4775    8.3636    0.0000 C   0  0  2  0  0  0  0  0  0  0  0  0
    4.4792    9.3636    0.0000 C   0  0  1  0  0  0  0  0  0  0  0  0
    3.5259    8.0562    0.0000 C   0  0  1  0  0  0  0  0  0  0  0  0
    3.5287    9.6743    0.0000 C   0  0  1  0  0  0  0  0  0  0  0  0
    9.5753    2.3225    0.0000 C   0  0  1  0  0  0  0  0  0  0  0  0
    9.2663    3.2736    0.0000 C   0  0  2  0  0  0  0  0  0  0  0  0
   10.5753    2.3225    0.0000 C   0  0  1  0  0  0  0  0  0  0  0  0
   10.0753    3.8614    0.0000 C   0  0  1  0  0  0  0  0  0  0  0  0
    9.5753   12.1832    0.0000 C   0  0  1  0  0  0  0  0  0  0  0  0
    9.2663   13.1343    0.0000 C   0  0  2  0  0  0  0  0  0  0  0  0
   10.5753   12.1832    0.0000 C   0  0  1  0  0  0  0  0  0  0  0  0
   10.0753   13.7220    0.0000 C   0  0  1  0  0  0  0  0  0  0  0  0
    3.2213   10.6259    0.0000 C   0  0  0  0  0  0  0  0  0  0  0  0
   11.1631    1.5135    0.0000 C   0  0  0  0  0  0  0  0  0  0  0  0
   11.1631   11.3742    0.0000 C   0  0  0  0  0  0  0  0  0  0  0  0
    2.2690    6.8010    0.0000 C   0  0  0  0  0  0  0  0  0  0  0  0
    3.7988    6.3010    0.0000 C   0  0  0  0  0  0  0  0  0  0  0  0
    2.2690    5.8010    0.0000 C   0  0  0  0  0  0  0  0  0  0  0  0
   10.9413    5.3614    0.0000 C   0  0  0  0  0  0  0  0  0  0  0  0
    9.2093    5.3614    0.0000 C   0  0  0  0  0  0  0  0  0  0  0  0
    9.2093   15.2220    0.0000 C   0  0  0  0  0  0  0  0  0  0  0  0
   10.9413   15.2220    0.0000 C   0  0  0  0  0  0  0  0  0  0  0  0
    9.2093    6.3614    0.0000 C   0  0  0  0  0  0  0  0  0  0  0  0
    1.4030    5.3010    0.0000 C   0  0  0  0  0  0  0  0  0  0  0  0
    9.2093   16.2220    0.0000 C   0  0  0  0  0  0  0  0  0  0  0  0
   10.0753    6.8614    0.0000 C   0  0  0  0  0  0  0  0  0  0  0  0
   10.0753   16.7220    0.0000 C   0  0  0  0  0  0  0  0  0  0  0  0
    0.5369    6.8010    0.0000 C   0  0  0  0  0  0  0  0  0  0  0  0
    5.0304    8.6441    0.0000 H   0  0  0  0  0  0  0  0  0  0  0  0
    5.0311    9.0812    0.0000 H   0  0  0  0  0  0  0  0  0  0  0  0
    2.9133    7.9603    0.0000 H   0  0  0  0  0  0  0  0  0  0  0  0
    2.9165    9.7723    0.0000 H   0  0  0  0  0  0  0  0  0  0  0  0
    8.9630    2.4195    0.0000 H   0  0  0  0  0  0  0  0  0  0  0  0
    8.8279    2.8352    0.0000 H   0  0  0  0  0  0  0  0  0  0  0  0
   11.1877    2.4195    0.0000 H   0  0  0  0  0  0  0  0  0  0  0  0
   10.6277    4.1428    0.0000 H   0  0  0  0  0  0  0  0  0  0  0  0
    9.8568   11.6308    0.0000 H   0  0  0  0  0  0  0  0  0  0  0  0
    8.8279   12.6959    0.0000 H   0  0  0  0  0  0  0  0  0  0  0  0
   11.1877   12.2802    0.0000 H   0  0  0  0  0  0  0  0  0  0  0  0
   10.6277   14.0035    0.0000 H   0  0  0  0  0  0  0  0  0  0  0  0
    2.8404   11.1151    0.0000 H   0  0  0  0  0  0  0  0  0  0  0  0
    2.6734   10.3357    0.0000 H   0  0  0  0  0  0  0  0  0  0  0  0
   10.6059    1.2417    0.0000 H   0  0  0  0  0  0  0  0  0  0  0  0
   11.3340    0.9175    0.0000 H   0  0  0  0  0  0  0  0  0  0  0  0
   10.6059   11.1024    0.0000 H   0  0  0  0  0  0  0  0  0  0  0  0
   11.3340   10.7782    0.0000 H   0  0  0  0  0  0  0  0  0  0  0  0
    5.8523    8.0256    0.0000 H   0  0  0  0  0  0  0  0  0  0  0  0
    5.8552    9.6968    0.0000 H   0  0  0  0  0  0  0  0  0  0  0  0
    4.4188    6.3010    0.0000 H   0  0  0  0  0  0  0  0  0  0  0  0
    9.2397    0.9471    0.0000 H   0  0  0  0  0  0  0  0  0  0  0  0
    7.8545    3.1677    0.0000 H   0  0  0  0  0  0  0  0  0  0  0  0
    9.2397   10.8078    0.0000 H   0  0  0  0  0  0  0  0  0  0  0  0
    7.8545   13.0284    0.0000 H   0  0  0  0  0  0  0  0  0  0  0  0
    8.6724    5.0514    0.0000 H   0  0  0  0  0  0  0  0  0  0  0  0
    8.6724   14.9120    0.0000 H   0  0  0  0  0  0  0  0  0  0  0  0
   11.4783    6.6714    0.0000 H   0  0  0  0  0  0  0  0  0  0  0  0
    8.6724    6.6714    0.0000 H   0  0  0  0  0  0  0  0  0  0  0  0
    8.6724   16.5320    0.0000 H   0  0  0  0  0  0  0  0  0  0  0  0
    0.0000    7.1110    0.0000 H   0  0  0  0  0  0  0  0  0  0  0  0
    0.0000    5.4910    0.0000 H   0  0  0  0  0  0  0  0  0  0  0  0
    3.6926   13.7311    0.0000 H   0  0  0  0  0  0  0  0  0  0  0  0
    4.6659   13.2330    0.0000 H   0  0  0  0  0  0  0  0  0  0  0  0
    9.5384   18.0320    0.0000 H   0  0  0  0  0  0  0  0  0  0  0  0
   10.6123   18.0320    0.0000 H   0  0  0  0  0  0  0  0  0  0  0  0
   13.9498    0.0648    0.0000 H   0  0  0  0  0  0  0  0  0  0  0  0
   13.4896    2.0134    0.0000 H   0  0  0  0  0  0  0  0  0  0  0  0
   13.9498    9.9255    0.0000 H   0  0  0  0  0  0  0  0  0  0  0  0
   13.4896   11.8741    0.0000 H   0  0  0  0  0  0  0  0  0  0  0  0
  1 13  1  0  0  0  0
  1 18  1  0  0  0  0
  1 19  1  0  0  0  0
  1 22  2  0  0  0  0
  2 14  1  0  0  0  0
  2 20  1  0  0  0  0
  2 21  1  0  0  0  0
  2 26  2  0  0  0  0
  3 15  1  0  0  0  0
  3 24  1  0  0  0  0
  3 25  1  0  0  0  0
  3 27  2  0  0  0  0
  4 40  1  0  0  0  0
  4 41  1  0  0  0  0
  5 44  1  0  0  0  0
  5 45  1  0  0  0  0
  6 48  1  0  0  0  0
  6 49  1  0  0  0  0
 38  7  1  1  0  0  0
  7 84  1  0  0  0  0
 39  8  1  1  0  0  0
  8 85  1  0  0  0  0
 42  9  1  1  0  0  0
  9 87  1  0  0  0  0
 43 10  1  1  0  0  0
 10 88  1  0  0  0  0
 46 11  1  1  0  0  0
 11 89  1  0  0  0  0
 47 12  1  1  0  0  0
 12 90  1  0  0  0  0
 13 50  1  0  0  0  0
 14 51  1  0  0  0  0
 15 52  1  0  0  0  0
 16 56  2  0  0  0  0
 17 59  2  0  0  0  0
 18 98  1  0  0  0  0
 19 99  1  0  0  0  0
 20102  1  0  0  0  0
 21103  1  0  0  0  0
 23 61  2  0  0  0  0
 24104  1  0  0  0  0
 25105  1  0  0  0  0
 28 63  2  0  0  0  0
 40 29  1  6  0  0  0
 29 53  1  0  0  0  0
 29 54  1  0  0  0  0
 45 30  1  6  0  0  0
 30 56  1  0  0  0  0
 30 57  1  0  0  0  0
 49 31  1  6  0  0  0
 31 58  1  0  0  0  0
 31 59  1  0  0  0  0
 32 54  2  0  0  0  0
 32 55  1  0  0  0  0
 33 53  1  0  0  0  0
 33 65  2  0  0  0  0
 34 56  1  0  0  0  0
 34 63  1  0  0  0  0
 34 93  1  0  0  0  0
 35 59  1  0  0  0  0
 35 64  2  0  0  0  0
 36 61  1  0  0  0  0
 36 65  1  0  0  0  0
 36 97  1  0  0  0  0
 37 64  1  0  0  0  0
 37100  1  0  0  0  0
 37101  1  0  0  0  0
 38 39  1  0  0  0  0
 38 40  1  0  0  0  0
 38 66  1  0  0  0  0
 39 41  1  0  0  0  0
 39 67  1  0  0  0  0
 40 68  1  0  0  0  0
 41 50  1  6  0  0  0
 41 69  1  0  0  0  0
 42 43  1  0  0  0  0
 42 44  1  0  0  0  0
 42 70  1  0  0  0  0
 43 45  1  0  0  0  0
 43 71  1  0  0  0  0
 44 51  1  6  0  0  0
 44 72  1  0  0  0  0
 45 73  1  0  0  0  0
 46 47  1  0  0  0  0
 46 48  1  0  0  0  0
 46 74  1  0  0  0  0
 47 49  1  0  0  0  0
 47 75  1  0  0  0  0
 48 52  1  6  0  0  0
 48 76  1  0  0  0  0
 49 77  1  0  0  0  0
 50 78  1  0  0  0  0
 50 79  1  0  0  0  0
 51 80  1  0  0  0  0
 51 81  1  0  0  0  0
 52 82  1  0  0  0  0
 52 83  1  0  0  0  0
 53 55  2  0  0  0  0
 54 86  1  0  0  0  0
 55 61  1  0  0  0  0
 57 60  2  0  0  0  0
 57 91  1  0  0  0  0
 58 62  2  0  0  0  0
 58 92  1  0  0  0  0
 60 63  1  0  0  0  0
 60 94  1  0  0  0  0
 62 64  1  0  0  0  0
 62 95  1  0  0  0  0
 65 96  1  0  0  0  0
M  END
> <PUBCHEM_COMPOUND_CID>
135537060

> <PUBCHEM_COMPOUND_CANONICALIZED>
1

> <PUBCHEM_CACTVS_COMPLEXITY>
1600

> <PUBCHEM_CACTVS_HBOND_ACCEPTOR>
27

> <PUBCHEM_CACTVS_HBOND_DONOR>
15

> <PUBCHEM_CACTVS_ROTATABLE_BOND>
12

> <PUBCHEM_CACTVS_SUBSKEYS>
AAADcfB7/gMAAAAAAAAAAAAAAAAAAWJEiQAgQIAAAAAAAEABgAAAHgAQCCAACBzhlgYFsBfMFxCoQSd3dICAgC0XEqAJUIG4VFCDWApAyCAeQIgPFyLTAODwMAIAAAAAAAAAAAAAAAAAAAAAAAAAAAAAAA==

> <PUBCHEM_IUPAC_OPENEYE_NAME>
[(2R,3S,4R,5R)-5-(4-amino-2-oxo-pyrimidin-1-yl)-3,4-dihydroxy-tetrahydrofuran-2-yl]methyl dihydrogen phosphate;[(2R,3S,4R,5R)-3,4-dihydroxy-5-(6-oxo-1H-purin-9-yl)tetrahydrofuran-2-yl]methyl dihydrogen phosphate;[(2R,3S,4R,5R)-5-(2,4-dioxopyrimidin-1-yl)-3,4-dihydroxy-tetrahydrofuran-2-yl]methyl dihydrogen phosphate

> <PUBCHEM_IUPAC_CAS_NAME>
[(2R,3S,4R,5R)-5-(4-amino-2-oxo-1-pyrimidinyl)-3,4-dihydroxy-2-oxolanyl]methyl dihydrogen phosphate;[(2R,3S,4R,5R)-3,4-dihydroxy-5-(6-oxo-1H-purin-9-yl)-2-oxolanyl]methyl dihydrogen phosphate;[(2R,3S,4R,5R)-5-(2,4-dioxo-1-pyrimidinyl)-3,4-dihydroxy-2-oxolanyl]methyl dihydrogen phosphate

> <PUBCHEM_IUPAC_NAME_MARKUP>
[(2<I>R</I>,3<I>S</I>,4<I>R</I>,5<I>R</I>)-5-(4-amino-2-oxopyrimidin-1-yl)-3,4-dihydroxyoxolan-2-yl]methyl dihydrogen phosphate;[(2<I>R</I>,3<I>S</I>,4<I>R</I>,5<I>R</I>)-3,4-dihydroxy-5-(6-oxo-1<I>H</I>-purin-9-yl)oxolan-2-yl]methyl dihydrogen phosphate;[(2<I>R</I>,3<I>S</I>,4<I>R</I>,5<I>R</I>)-5-(2,4-dioxopyrimidin-1-yl)-3,4-dihydroxyoxolan-2-yl]methyl dihydrogen phosphate

> <PUBCHEM_IUPAC_NAME>
[(2R,3S,4R,5R)-5-(4-amino-2-oxopyrimidin-1-yl)-3,4-dihydroxyoxolan-2-yl]methyl dihydrogen phosphate;[(2R,3S,4R,5R)-3,4-dihydroxy-5-(6-oxo-1H-purin-9-yl)oxolan-2-yl]methyl dihydrogen phosphate;[(2R,3S,4R,5R)-5-(2,4-dioxopyrimidin-1-yl)-3,4-dihydroxyoxolan-2-yl]methyl dihydrogen phosphate

> <PUBCHEM_IUPAC_SYSTEMATIC_NAME>
[(2R,3S,4R,5R)-5-(4-azanyl-2-oxidanylidene-pyrimidin-1-yl)-3,4-bis(oxidanyl)oxolan-2-yl]methyl dihydrogen phosphate;[(2R,3S,4R,5R)-5-[2,4-bis(oxidanylidene)pyrimidin-1-yl]-3,4-bis(oxidanyl)oxolan-2-yl]methyl dihydrogen phosphate;[(2R,3S,4R,5R)-3,4-bis(oxidanyl)-5-(6-oxidanylidene-1H-purin-9-yl)oxolan-2-yl]methyl dihydrogen phosphate

> <PUBCHEM_IUPAC_TRADITIONAL_NAME>
[(2R,3S,4R,5R)-5-(4-amino-2-keto-pyrimidin-1-yl)-3,4-dihydroxy-tetrahydrofuran-2-yl]methyl dihydrogen phosphate;[(2R,3S,4R,5R)-3,4-dihydroxy-5-(6-keto-1H-purin-9-yl)tetrahydrofuran-2-yl]methyl dihydrogen phosphate;[(2R,3S,4R,5R)-5-(2,4-diketopyrimidin-1-yl)-3,4-dihydroxy-tetrahydrofuran-2-yl]methyl dihydrogen phosphate

> <PUBCHEM_IUPAC_INCHI>
InChI=1S/C10H13N4O8P.C9H14N3O8P.C9H13N2O9P/c15-6-4(1-21-23(18,19)20)22-10(7(6)16)14-3-13-5-8(14)11-2-12-9(5)17;10-5-1-2-12(9(15)11-5)8-7(14)6(13)4(20-8)3-19-21(16,17)18;12-5-1-2-11(9(15)10-5)8-7(14)6(13)4(20-8)3-19-21(16,17)18/h2-4,6-7,10,15-16H,1H2,(H,11,12,17)(H2,18,19,20);1-2,4,6-8,13-14H,3H2,(H2,10,11,15)(H2,16,17,18);1-2,4,6-8,13-14H,3H2,(H,10,12,15)(H2,16,17,18)/t4-,6-,7-,10-;2*4-,6-,7-,8-/m111/s1

> <PUBCHEM_IUPAC_INCHIKEY>
KNUXHTWUIVMBBY-JRJYXWDASA-N

> <PUBCHEM_EXACT_MASS>
995.134819

> <PUBCHEM_MOLECULAR_FORMULA>
C28H40N9O25P3

> <PUBCHEM_MOLECULAR_WEIGHT>
995.6

> <PUBCHEM_OPENEYE_CAN_SMILES>
C1=CN(C(=O)N=C1N)C2C(C(C(O2)COP(=O)(O)O)O)O.C1=CN(C(=O)NC1=O)C2C(C(C(O2)COP(=O)(O)O)O)O.C1=NC2=C(C(=O)N1)N=CN2C3C(C(C(O3)COP(=O)(O)O)O)O

> <PUBCHEM_OPENEYE_ISO_SMILES>
C1=CN(C(=O)N=C1N)[C@H]2[C@@H]([C@@H]([C@H](O2)COP(=O)(O)O)O)O.C1=CN(C(=O)NC1=O)[C@H]2[C@@H]([C@@H]([C@H](O2)COP(=O)(O)O)O)O.C1=NC2=C(C(=O)N1)N=CN2[C@H]3[C@@H]([C@@H]([C@H](O3)COP(=O)(O)O)O)O

> <PUBCHEM_CACTVS_TPSA>
517

> <PUBCHEM_MONOISOTOPIC_WEIGHT>
995.134819

> <PUBCHEM_TOTAL_CHARGE>
0

> <PUBCHEM_HEAVY_ATOM_COUNT>
65

> <PUBCHEM_ATOM_DEF_STEREO_COUNT>
12

> <PUBCHEM_ATOM_UDEF_STEREO_COUNT>
0

> <PUBCHEM_BOND_DEF_STEREO_COUNT>
0

> <PUBCHEM_BOND_UDEF_STEREO_COUNT>
0

> <PUBCHEM_ISOTOPIC_ATOM_COUNT>
0

> <PUBCHEM_COMPONENT_COUNT>
3

> <PUBCHEM_CACTVS_TAUTO_COUNT>
-1

> <PUBCHEM_COORDINATE_TYPE>
1
5
255

> <PUBCHEM_BONDANNOTATIONS>
43  10  5
46  11  5
47  12  5
40  29  6
29  53  8
29  54  8
45  30  6
30  56  8
30  57  8
49  31  6
31  58  8
31  59  8
32  54  8
32  55  8
33  53  8
33  65  8
34  56  8
34  63  8
35  59  8
35  64  8
36  61  8
36  65  8
41  50  6
44  51  6
48  52  6
53  55  8
55  61  8
57  60  8
58  62  8
60  63  8
62  64  8
38  7  5
39  8  5
42  9  5

$$$$
