135565884
  -OEChem-05242006142D

 64 68  0     1  0  0  0  0  0999 V2000
    3.7320   -3.7944    0.0000 O   0  0  0  0  0  0  0  0  0  0  0  0
    5.9674    3.6670    0.0000 O   0  0  0  0  0  0  0  0  0  0  0  0
    9.2619    1.7056    0.0000 O   0  0  0  0  0  0  0  0  0  0  0  0
    3.7320    1.2056    0.0000 N   0  0  0  0  0  0  0  0  0  0  0  0
    2.8660   -2.2944    0.0000 N   0  0  0  0  0  0  0  0  0  0  0  0
    2.8660    2.7056    0.0000 N   0  0  0  0  0  0  0  0  0  0  0  0
    4.6783    0.9008    0.0000 N   0  0  0  0  0  0  0  0  0  0  0  0
    4.3211    4.2051    0.0000 N   0  0  0  0  0  0  0  0  0  0  0  0
    2.8660   -0.2944    0.0000 C   0  0  0  0  0  0  0  0  0  0  0  0
    2.8660    0.7056    0.0000 C   0  0  2  0  0  0  0  0  0  0  0  0
    3.7320   -0.7944    0.0000 C   0  0  0  0  0  0  0  0  0  0  0  0
    2.0000   -0.7944    0.0000 C   0  0  0  0  0  0  0  0  0  0  0  0
    2.0000    1.2056    0.0000 C   0  0  0  0  0  0  0  0  0  0  0  0
    3.7320   -1.7944    0.0000 C   0  0  0  0  0  0  0  0  0  0  0  0
    2.0000   -1.7944    0.0000 C   0  0  0  0  0  0  0  0  0  0  0  0
    2.0000    2.2056    0.0000 C   0  0  0  0  0  0  0  0  0  0  0  0
    3.7320    2.2056    0.0000 C   0  0  0  0  0  0  0  0  0  0  0  0
    4.6783    2.5103    0.0000 C   0  0  0  0  0  0  0  0  0  0  0  0
    5.2619    1.7056    0.0000 C   0  0  0  0  0  0  0  0  0  0  0  0
    2.8660   -3.2944    0.0000 C   0  0  0  0  0  0  0  0  0  0  0  0
    6.2619    1.7056    0.0000 C   0  0  0  0  0  0  0  0  0  0  0  0
    4.9889    3.4608    0.0000 C   0  0  0  0  0  0  0  0  0  0  0  0
    2.0000   -3.7944    0.0000 C   0  0  0  0  0  0  0  0  0  0  0  0
    6.7619    2.5716    0.0000 C   0  0  0  0  0  0  0  0  0  0  0  0
    6.7619    0.8395    0.0000 C   0  0  0  0  0  0  0  0  0  0  0  0
    2.0000   -4.7944    0.0000 C   0  0  0  0  0  0  0  0  0  0  0  0
    7.7619    2.5716    0.0000 C   0  0  0  0  0  0  0  0  0  0  0  0
    7.7619    0.8395    0.0000 C   0  0  0  0  0  0  0  0  0  0  0  0
    8.2619    1.7056    0.0000 C   0  0  0  0  0  0  0  0  0  0  0  0
    9.7619    0.8395    0.0000 C   0  0  0  0  0  0  0  0  0  0  0  0
    9.2619   -0.0265    0.0000 C   0  0  0  0  0  0  0  0  0  0  0  0
   10.7619    0.8395    0.0000 C   0  0  0  0  0  0  0  0  0  0  0  0
    9.7619   -0.8925    0.0000 C   0  0  0  0  0  0  0  0  0  0  0  0
   11.2619   -0.0265    0.0000 C   0  0  0  0  0  0  0  0  0  0  0  0
   10.7619   -0.8925    0.0000 C   0  0  0  0  0  0  0  0  0  0  0  0
    3.4030    0.0156    0.0000 H   0  0  0  0  0  0  0  0  0  0  0  0
    2.1299    0.2806    0.0000 H   0  0  0  0  0  0  0  0  0  0  0  0
    4.3426   -0.9021    0.0000 H   0  0  0  0  0  0  0  0  0  0  0  0
    3.9441   -0.2118    0.0000 H   0  0  0  0  0  0  0  0  0  0  0  0
    1.7880   -0.2118    0.0000 H   0  0  0  0  0  0  0  0  0  0  0  0
    1.3894   -0.9021    0.0000 H   0  0  0  0  0  0  0  0  0  0  0  0
    1.3894    1.3132    0.0000 H   0  0  0  0  0  0  0  0  0  0  0  0
    1.7880    0.6230    0.0000 H   0  0  0  0  0  0  0  0  0  0  0  0
    3.9441   -2.3770    0.0000 H   0  0  0  0  0  0  0  0  0  0  0  0
    4.3426   -1.6868    0.0000 H   0  0  0  0  0  0  0  0  0  0  0  0
    1.3894   -1.6868    0.0000 H   0  0  0  0  0  0  0  0  0  0  0  0
    1.7880   -2.3770    0.0000 H   0  0  0  0  0  0  0  0  0  0  0  0
    1.7880    2.7882    0.0000 H   0  0  0  0  0  0  0  0  0  0  0  0
    1.3894    2.0979    0.0000 H   0  0  0  0  0  0  0  0  0  0  0  0
    2.8660    3.3256    0.0000 H   0  0  0  0  0  0  0  0  0  0  0  0
    1.4631   -3.4844    0.0000 H   0  0  0  0  0  0  0  0  0  0  0  0
    6.4519    3.1085    0.0000 H   0  0  0  0  0  0  0  0  0  0  0  0
    6.4519    0.3026    0.0000 H   0  0  0  0  0  0  0  0  0  0  0  0
    4.5137    4.7944    0.0000 H   0  0  0  0  0  0  0  0  0  0  0  0
    3.7144    4.0773    0.0000 H   0  0  0  0  0  0  0  0  0  0  0  0
    1.4631   -5.1044    0.0000 H   0  0  0  0  0  0  0  0  0  0  0  0
    2.5369   -5.1044    0.0000 H   0  0  0  0  0  0  0  0  0  0  0  0
    8.0719    3.1085    0.0000 H   0  0  0  0  0  0  0  0  0  0  0  0
    8.0719    0.3026    0.0000 H   0  0  0  0  0  0  0  0  0  0  0  0
    8.6419   -0.0265    0.0000 H   0  0  0  0  0  0  0  0  0  0  0  0
   11.0719    1.3765    0.0000 H   0  0  0  0  0  0  0  0  0  0  0  0
    9.4519   -1.4295    0.0000 H   0  0  0  0  0  0  0  0  0  0  0  0
   11.8819   -0.0265    0.0000 H   0  0  0  0  0  0  0  0  0  0  0  0
   11.0719   -1.4295    0.0000 H   0  0  0  0  0  0  0  0  0  0  0  0
  1 20  2  0  0  0  0
  2 22  2  0  0  0  0
  3 29  1  0  0  0  0
  3 30  1  0  0  0  0
  4  7  1  0  0  0  0
  4 10  1  0  0  0  0
  4 17  1  0  0  0  0
  5 14  1  0  0  0  0
  5 15  1  0  0  0  0
  5 20  1  0  0  0  0
  6 16  1  0  0  0  0
  6 17  1  0  0  0  0
  6 50  1  0  0  0  0
  7 19  2  0  0  0  0
  8 22  1  0  0  0  0
  8 54  1  0  0  0  0
  8 55  1  0  0  0  0
  9 10  1  0  0  0  0
  9 11  1  0  0  0  0
  9 12  1  0  0  0  0
  9 36  1  0  0  0  0
 10 13  1  0  0  0  0
 10 37  1  1  0  0  0
 11 14  1  0  0  0  0
 11 38  1  0  0  0  0
 11 39  1  0  0  0  0
 12 15  1  0  0  0  0
 12 40  1  0  0  0  0
 12 41  1  0  0  0  0
 13 16  1  0  0  0  0
 13 42  1  0  0  0  0
 13 43  1  0  0  0  0
 14 44  1  0  0  0  0
 14 45  1  0  0  0  0
 15 46  1  0  0  0  0
 15 47  1  0  0  0  0
 16 48  1  0  0  0  0
 16 49  1  0  0  0  0
 17 18  2  0  0  0  0
 18 19  1  0  0  0  0
 18 22  1  0  0  0  0
 19 21  1  0  0  0  0
 20 23  1  0  0  0  0
 21 24  2  0  0  0  0
 21 25  1  0  0  0  0
 23 26  2  0  0  0  0
 23 51  1  0  0  0  0
 24 27  1  0  0  0  0
 24 52  1  0  0  0  0
 25 28  2  0  0  0  0
 25 53  1  0  0  0  0
 26 56  1  0  0  0  0
 26 57  1  0  0  0  0
 27 29  2  0  0  0  0
 27 58  1  0  0  0  0
 28 29  1  0  0  0  0
 28 59  1  0  0  0  0
 30 31  2  0  0  0  0
 30 32  1  0  0  0  0
 31 33  1  0  0  0  0
 31 60  1  0  0  0  0
 32 34  2  0  0  0  0
 32 61  1  0  0  0  0
 33 35  2  0  0  0  0
 33 62  1  0  0  0  0
 34 35  1  0  0  0  0
 34 63  1  0  0  0  0
 35 64  1  0  0  0  0
M  END
> <PUBCHEM_COMPOUND_CID>
135565884

> <PUBCHEM_COMPOUND_CANONICALIZED>
1

> <PUBCHEM_CACTVS_COMPLEXITY>
756

> <PUBCHEM_CACTVS_HBOND_ACCEPTOR>
5

> <PUBCHEM_CACTVS_HBOND_DONOR>
2

> <PUBCHEM_CACTVS_ROTATABLE_BOND>
6

> <PUBCHEM_CACTVS_SUBSKEYS>
AAADceB7sAAAAAAAAAAAAAAAAAAAAWAAAAA8eIEAAAAAAFgB0AAAHgAYAAAADSzBngQxtpPIBACqAydydACSDAMloAAd2KEuTNiMJrrE+duGvaj83hPI6ceY2OGOIAAAAAAAAABAAAAAAAAAAAAAAAAAAA==

> <PUBCHEM_IUPAC_OPENEYE_NAME>
(7S)-2-(4-phenoxyphenyl)-7-(1-prop-2-enoyl-4-piperidyl)-4,5,6,7-tetrahydropyrazolo[1,5-a]pyrimidine-3-carboxamide

> <PUBCHEM_IUPAC_CAS_NAME>
(7S)-7-[1-(1-oxoprop-2-enyl)-4-piperidinyl]-2-(4-phenoxyphenyl)-4,5,6,7-tetrahydropyrazolo[1,5-a]pyrimidine-3-carboxamide

> <PUBCHEM_IUPAC_NAME_MARKUP>
(7<I>S</I>)-2-(4-phenoxyphenyl)-7-(1-prop-2-enoylpiperidin-4-yl)-4,5,6,7-tetrahydropyrazolo[1,5-a]pyrimidine-3-carboxamide

> <PUBCHEM_IUPAC_NAME>
(7S)-2-(4-phenoxyphenyl)-7-(1-prop-2-enoylpiperidin-4-yl)-4,5,6,7-tetrahydropyrazolo[1,5-a]pyrimidine-3-carboxamide

> <PUBCHEM_IUPAC_SYSTEMATIC_NAME>
(7S)-2-(4-phenoxyphenyl)-7-(1-prop-2-enoylpiperidin-4-yl)-4,5,6,7-tetrahydropyrazolo[1,5-a]pyrimidine-3-carboxamide

> <PUBCHEM_IUPAC_TRADITIONAL_NAME>
(7S)-7-(1-acryloyl-4-piperidyl)-2-(4-phenoxyphenyl)-4,5,6,7-tetrahydropyrazolo[1,5-a]pyrimidine-3-carboxamide

> <PUBCHEM_IUPAC_INCHI>
InChI=1S/C27H29N5O3/c1-2-23(33)31-16-13-18(14-17-31)22-12-15-29-27-24(26(28)34)25(30-32(22)27)19-8-10-21(11-9-19)35-20-6-4-3-5-7-20/h2-11,18,22,29H,1,12-17H2,(H2,28,34)/t22-/m0/s1

> <PUBCHEM_IUPAC_INCHIKEY>
RNOAOAWBMHREKO-QFIPXVFZSA-N

> <PUBCHEM_XLOGP3_AA>
3.5

> <PUBCHEM_EXACT_MASS>
471.22704

> <PUBCHEM_MOLECULAR_FORMULA>
C27H29N5O3

> <PUBCHEM_MOLECULAR_WEIGHT>
471.5

> <PUBCHEM_OPENEYE_CAN_SMILES>
C=CC(=O)N1CCC(CC1)C2CCNC3=C(C(=NN23)C4=CC=C(C=C4)OC5=CC=CC=C5)C(=O)N

> <PUBCHEM_OPENEYE_ISO_SMILES>
C=CC(=O)N1CCC(CC1)[C@@H]2CCNC3=C(C(=NN23)C4=CC=C(C=C4)OC5=CC=CC=C5)C(=O)N

> <PUBCHEM_CACTVS_TPSA>
103

> <PUBCHEM_MONOISOTOPIC_WEIGHT>
471.22704

> <PUBCHEM_TOTAL_CHARGE>
0

> <PUBCHEM_HEAVY_ATOM_COUNT>
35

> <PUBCHEM_ATOM_DEF_STEREO_COUNT>
1

> <PUBCHEM_ATOM_UDEF_STEREO_COUNT>
0

> <PUBCHEM_BOND_DEF_STEREO_COUNT>
0

> <PUBCHEM_BOND_UDEF_STEREO_COUNT>
0

> <PUBCHEM_ISOTOPIC_ATOM_COUNT>
0

> <PUBCHEM_COMPONENT_COUNT>
1

> <PUBCHEM_CACTVS_TAUTO_COUNT>
-1

> <PUBCHEM_COORDINATE_TYPE>
1
5
255

> <PUBCHEM_BONDANNOTATIONS>
10  37  5
17  18  8
18  19  8
21  24  8
21  25  8
24  27  8
25  28  8
27  29  8
28  29  8
30  31  8
30  32  8
31  33  8
32  34  8
33  35  8
34  35  8
4  17  8
4  7  8
7  19  8

$$$$
