137348943
  -OEChem-05242006142D

 29 28  0     1  0  0  0  0  0999 V2000
    6.8671    1.6550    0.0000 O   0  0  0  0  0  0  0  0  0  0  0  0
    6.0010    3.1550    0.0000 O   0  0  0  0  0  0  0  0  0  0  0  0
    4.2690    2.1550    0.0000 N   0  0  0  0  0  0  0  0  0  0  0  0
    3.4030   -1.3450    0.0000 N   0  3  0  0  0  0  0  0  0  0  0  0
    2.5369   -2.8450    0.0000 N   0  0  0  0  0  0  0  0  0  0  0  0
    4.2690   -2.8450    0.0000 N   0  0  0  0  0  0  0  0  0  0  0  0
    5.1350    0.6550    0.0000 C   0  0  0  0  0  0  0  0  0  0  0  0
    5.1350    1.6550    0.0000 C   0  0  1  0  0  0  0  0  0  0  0  0
    4.2690    0.1550    0.0000 C   0  0  0  0  0  0  0  0  0  0  0  0
    4.2690   -0.8450    0.0000 C   0  0  0  0  0  0  0  0  0  0  0  0
    6.0010    2.1550    0.0000 C   0  0  0  0  0  0  0  0  0  0  0  0
    3.4030   -2.3450    0.0000 C   0  0  0  0  0  0  0  0  0  0  0  0
    5.3471    0.0724    0.0000 H   0  0  0  0  0  0  0  0  0  0  0  0
    5.7456    0.7627    0.0000 H   0  0  0  0  0  0  0  0  0  0  0  0
    5.1350    2.2750    0.0000 H   0  0  0  0  0  0  0  0  0  0  0  0
    4.0569    0.7376    0.0000 H   0  0  0  0  0  0  0  0  0  0  0  0
    3.6584    0.0473    0.0000 H   0  0  0  0  0  0  0  0  0  0  0  0
    4.4810   -1.4276    0.0000 H   0  0  0  0  0  0  0  0  0  0  0  0
    4.8796   -0.7373    0.0000 H   0  0  0  0  0  0  0  0  0  0  0  0
    6.5380    2.4650    0.0000 H   0  0  0  0  0  0  0  0  0  0  0  0
    3.7320    1.8450    0.0000 H   0  0  0  0  0  0  0  0  0  0  0  0
    4.2690    2.7750    0.0000 H   0  0  0  0  0  0  0  0  0  0  0  0
    2.8660   -1.0350    0.0000 H   0  0  0  0  0  0  0  0  0  0  0  0
    7.4040    1.9650    0.0000 H   0  0  0  0  0  0  0  0  0  0  0  0
    6.5380    3.4650    0.0000 H   0  0  0  0  0  0  0  0  0  0  0  0
    2.5369   -3.4650    0.0000 H   0  0  0  0  0  0  0  0  0  0  0  0
    2.0000   -2.5350    0.0000 H   0  0  0  0  0  0  0  0  0  0  0  0
    4.2690   -3.4650    0.0000 H   0  0  0  0  0  0  0  0  0  0  0  0
    4.8059   -2.5350    0.0000 H   0  0  0  0  0  0  0  0  0  0  0  0
  1 11  1  0  0  0  0
  1 24  1  0  0  0  0
  2 11  1  0  0  0  0
  2 25  1  0  0  0  0
  8  3  1  6  0  0  0
  3 21  1  0  0  0  0
  3 22  1  0  0  0  0
  4 10  1  0  0  0  0
  4 12  2  0  0  0  0
  4 23  1  0  0  0  0
  5 12  1  0  0  0  0
  5 26  1  0  0  0  0
  5 27  1  0  0  0  0
  6 12  1  0  0  0  0
  6 28  1  0  0  0  0
  6 29  1  0  0  0  0
  7  8  1  0  0  0  0
  7  9  1  0  0  0  0
  7 13  1  0  0  0  0
  7 14  1  0  0  0  0
  8 11  1  0  0  0  0
  8 15  1  0  0  0  0
  9 10  1  0  0  0  0
  9 16  1  0  0  0  0
  9 17  1  0  0  0  0
 10 18  1  0  0  0  0
 10 19  1  0  0  0  0
 11 20  1  0  0  0  0
M  CHG  1   4   1
M  END
> <PUBCHEM_COMPOUND_CID>
137348943

> <PUBCHEM_COMPOUND_CANONICALIZED>
1

> <PUBCHEM_CACTVS_COMPLEXITY>
145

> <PUBCHEM_CACTVS_HBOND_ACCEPTOR>
3

> <PUBCHEM_CACTVS_HBOND_DONOR>
6

> <PUBCHEM_CACTVS_ROTATABLE_BOND>
5

> <PUBCHEM_CACTVS_SUBSKEYS>
AAADceBjsAAAAAAAAAAAAAAAAAAAAAAAAAAAAAAAAAAAAAAAAAAAHgAQCAAACCjxgAcBCALAAgAgAAAAJAAAAAGAAAAAAIAAAAACEAIAgAAAQAAEEAAAAACQEAAAAAAAAAAAAAAAAAAAAAAAAAAAAAAAAA==

> <PUBCHEM_IUPAC_OPENEYE_NAME>
[(4S)-4-amino-5,5-dihydroxy-pentyl]-(diaminomethylene)ammonium

> <PUBCHEM_IUPAC_CAS_NAME>
[(4S)-4-amino-5,5-dihydroxypentyl]-(diaminomethylidene)ammonium

> <PUBCHEM_IUPAC_NAME_MARKUP>
[(4<I>S</I>)-4-amino-5,5-dihydroxypentyl]-(diaminomethylidene)azanium

> <PUBCHEM_IUPAC_NAME>
[(4S)-4-amino-5,5-dihydroxypentyl]-(diaminomethylidene)azanium

> <PUBCHEM_IUPAC_SYSTEMATIC_NAME>
[(4S)-4-azanyl-5,5-bis(oxidanyl)pentyl]-[bis(azanyl)methylidene]azanium

> <PUBCHEM_IUPAC_TRADITIONAL_NAME>
[(4S)-4-amino-5,5-dihydroxy-pentyl]-(diaminomethylene)ammonium

> <PUBCHEM_IUPAC_INCHI>
InChI=1S/C6H16N4O2/c7-4(5(11)12)2-1-3-10-6(8)9/h4-5,11-12H,1-3,7H2,(H4,8,9,10)/p+1/t4-/m0/s1

> <PUBCHEM_IUPAC_INCHIKEY>
GJQTZIGWTNAHJO-BYPYZUCNSA-O

> <PUBCHEM_XLOGP3_AA>
-2.7

> <PUBCHEM_EXACT_MASS>
177.135151

> <PUBCHEM_MOLECULAR_FORMULA>
C6H17N4O2+

> <PUBCHEM_MOLECULAR_WEIGHT>
177.23

> <PUBCHEM_OPENEYE_CAN_SMILES>
C(CC(C(O)O)N)C[NH+]=C(N)N

> <PUBCHEM_OPENEYE_ISO_SMILES>
C(C[C@@H](C(O)O)N)C[NH+]=C(N)N

> <PUBCHEM_CACTVS_TPSA>
133

> <PUBCHEM_MONOISOTOPIC_WEIGHT>
177.135151

> <PUBCHEM_TOTAL_CHARGE>
1

> <PUBCHEM_HEAVY_ATOM_COUNT>
12

> <PUBCHEM_ATOM_DEF_STEREO_COUNT>
1

> <PUBCHEM_ATOM_UDEF_STEREO_COUNT>
0

> <PUBCHEM_BOND_DEF_STEREO_COUNT>
0

> <PUBCHEM_BOND_UDEF_STEREO_COUNT>
0

> <PUBCHEM_ISOTOPIC_ATOM_COUNT>
0

> <PUBCHEM_COMPONENT_COUNT>
1

> <PUBCHEM_CACTVS_TAUTO_COUNT>
-1

> <PUBCHEM_COORDINATE_TYPE>
1
5
255

> <PUBCHEM_BONDANNOTATIONS>
8  3  6

$$$$
