145996542
  -OEChem-05242006102D

 44 46  0     1  0  0  0  0  0999 V2000
    2.0000   -2.3670    0.0000 I   0  0  0  0  0  0  0  0  0  0  0  0
    5.9134    2.6514    0.0000 P   0  0  3  0  0  0  0  0  0  0  0  0
    6.2765    4.3450    0.0000 P   0  0  0  0  0  0  0  0  0  0  0  0
    5.2686   -0.8017    0.0000 O   0  0  0  0  0  0  0  0  0  0  0  0
    7.6183    0.2820    0.0000 O   0  0  0  0  0  0  0  0  0  0  0  0
    7.6146   -1.8936    0.0000 O   0  0  0  0  0  0  0  0  0  0  0  0
    6.2208    1.6999    0.0000 O   0  0  0  0  0  0  0  0  0  0  0  0
    6.8650    2.9588    0.0000 O   0  0  0  0  0  0  0  0  0  0  0  0
    4.9618    2.3441    0.0000 O   0  0  0  0  0  0  0  0  0  0  0  0
    6.9469    5.0870    0.0000 O   0  0  0  0  0  0  0  0  0  0  0  0
    5.5345    5.0154    0.0000 O   0  0  0  0  0  0  0  0  0  0  0  0
    7.0185    3.6746    0.0000 O   0  0  0  0  0  0  0  0  0  0  0  0
    5.5443   -2.5623    0.0000 N   0  0  0  0  0  0  0  0  0  0  0  0
    5.5443   -4.1717    0.0000 N   0  0  0  0  0  0  0  0  0  0  0  0
    3.7320   -2.3670    0.0000 N   0  0  0  0  0  0  0  0  0  0  0  0
    2.8660   -3.8670    0.0000 N   0  0  0  0  0  0  0  0  0  0  0  0
    3.7320   -5.3670    0.0000 N   0  0  0  0  0  0  0  0  0  0  0  0
    6.8083   -0.3044    0.0000 C   0  0  1  0  0  0  0  0  0  0  0  0
    6.8066   -1.3044    0.0000 C   0  0  2  0  0  0  0  0  0  0  0  0
    5.8578    0.0063    0.0000 C   0  0  1  0  0  0  0  0  0  0  0  0
    5.8550   -1.6118    0.0000 C   0  0  1  0  0  0  0  0  0  0  0  0
    5.5504    0.9579    0.0000 C   0  0  0  0  0  0  0  0  0  0  0  0
    4.5981   -2.8670    0.0000 C   0  0  0  0  0  0  0  0  0  0  0  0
    6.1279   -3.3670    0.0000 C   0  0  0  0  0  0  0  0  0  0  0  0
    4.5981   -3.8670    0.0000 C   0  0  0  0  0  0  0  0  0  0  0  0
    5.6061    3.6030    0.0000 C   0  0  0  0  0  0  0  0  0  0  0  0
    3.7320   -4.3670    0.0000 C   0  0  0  0  0  0  0  0  0  0  0  0
    2.8660   -2.8670    0.0000 C   0  0  0  0  0  0  0  0  0  0  0  0
    7.3602   -0.5868    0.0000 H   0  0  0  0  0  0  0  0  0  0  0  0
    6.7085   -1.9166    0.0000 H   0  0  0  0  0  0  0  0  0  0  0  0
    5.2456    0.1043    0.0000 H   0  0  0  0  0  0  0  0  0  0  0  0
    6.2926   -2.0509    0.0000 H   0  0  0  0  0  0  0  0  0  0  0  0
    5.1695    1.4471    0.0000 H   0  0  0  0  0  0  0  0  0  0  0  0
    5.0025    0.6678    0.0000 H   0  0  0  0  0  0  0  0  0  0  0  0
    8.1843    0.0289    0.0000 H   0  0  0  0  0  0  0  0  0  0  0  0
    8.1814   -1.6424    0.0000 H   0  0  0  0  0  0  0  0  0  0  0  0
    6.7479   -3.3670    0.0000 H   0  0  0  0  0  0  0  0  0  0  0  0
    5.2252    4.0923    0.0000 H   0  0  0  0  0  0  0  0  0  0  0  0
    5.0581    3.3129    0.0000 H   0  0  0  0  0  0  0  0  0  0  0  0
    7.3250    2.5432    0.0000 H   0  0  0  0  0  0  0  0  0  0  0  0
    3.1951   -5.6770    0.0000 H   0  0  0  0  0  0  0  0  0  0  0  0
    4.2690   -5.6770    0.0000 H   0  0  0  0  0  0  0  0  0  0  0  0
    6.7563    5.6770    0.0000 H   0  0  0  0  0  0  0  0  0  0  0  0
    4.9445    4.8249    0.0000 H   0  0  0  0  0  0  0  0  0  0  0  0
  1 28  1  0  0  0  0
  2  7  1  0  0  0  0
  2  8  1  0  0  0  0
  2  9  2  0  0  0  0
  2 26  1  0  0  0  0
  3 10  1  0  0  0  0
  3 11  1  0  0  0  0
  3 12  2  0  0  0  0
  3 26  1  0  0  0  0
  4 20  1  0  0  0  0
  4 21  1  0  0  0  0
 18  5  1  1  0  0  0
  5 35  1  0  0  0  0
 19  6  1  1  0  0  0
  6 36  1  0  0  0  0
  7 22  1  0  0  0  0
  8 40  1  0  0  0  0
 10 43  1  0  0  0  0
 11 44  1  0  0  0  0
 21 13  1  6  0  0  0
 13 23  1  0  0  0  0
 13 24  1  0  0  0  0
 14 24  2  0  0  0  0
 14 25  1  0  0  0  0
 15 23  2  0  0  0  0
 15 28  1  0  0  0  0
 16 27  1  0  0  0  0
 16 28  2  0  0  0  0
 17 27  1  0  0  0  0
 17 41  1  0  0  0  0
 17 42  1  0  0  0  0
 18 19  1  0  0  0  0
 18 20  1  0  0  0  0
 18 29  1  0  0  0  0
 19 21  1  0  0  0  0
 19 30  1  0  0  0  0
 20 22  1  6  0  0  0
 20 31  1  0  0  0  0
 21 32  1  0  0  0  0
 22 33  1  0  0  0  0
 22 34  1  0  0  0  0
 23 25  1  0  0  0  0
 24 37  1  0  0  0  0
 25 27  2  0  0  0  0
 26 38  1  0  0  0  0
 26 39  1  0  0  0  0
M  END
> <PUBCHEM_COMPOUND_CID>
145996542

> <PUBCHEM_COMPOUND_CANONICALIZED>
1

> <PUBCHEM_CACTVS_COMPLEXITY>
672

> <PUBCHEM_CACTVS_HBOND_ACCEPTOR>
13

> <PUBCHEM_CACTVS_HBOND_DONOR>
6

> <PUBCHEM_CACTVS_ROTATABLE_BOND>
6

> <PUBCHEM_CACTVS_SUBSKEYS>
AAADceBzvAMAAgAAAAAAAAAAAAAAAWJAAAAsAAAAAAAAAFgB+AAAHggwCCAACBzhlwYF8L9MFxCgQQZhZICAgC0REKABUCAoVBCDWAJAyEAeRAgPAALTACDwMAIAAAAAAAAAAAAAAAAAAAAAAAAAAAAAAA==

> <PUBCHEM_IUPAC_OPENEYE_NAME>
[[(2R,3S,4R,5R)-5-(6-amino-2-iodo-purin-9-yl)-3,4-dihydroxy-tetrahydrofuran-2-yl]methoxy-hydroxy-phosphoryl]methylphosphonic acid

> <PUBCHEM_IUPAC_CAS_NAME>
[[(2R,3S,4R,5R)-5-(6-amino-2-iodo-9-purinyl)-3,4-dihydroxy-2-oxolanyl]methoxy-hydroxyphosphoryl]methylphosphonic acid

> <PUBCHEM_IUPAC_NAME_MARKUP>
[[(2<I>R</I>,3<I>S</I>,4<I>R</I>,5<I>R</I>)-5-(6-amino-2-iodopurin-9-yl)-3,4-dihydroxyoxolan-2-yl]methoxy-hydroxyphosphoryl]methylphosphonic acid

> <PUBCHEM_IUPAC_NAME>
[[(2R,3S,4R,5R)-5-(6-amino-2-iodopurin-9-yl)-3,4-dihydroxyoxolan-2-yl]methoxy-hydroxyphosphoryl]methylphosphonic acid

> <PUBCHEM_IUPAC_SYSTEMATIC_NAME>
[[(2R,3S,4R,5R)-5-(6-azanyl-2-iodanyl-purin-9-yl)-3,4-bis(oxidanyl)oxolan-2-yl]methoxy-oxidanyl-phosphoryl]methylphosphonic acid

> <PUBCHEM_IUPAC_TRADITIONAL_NAME>
[[(2R,3S,4R,5R)-5-(6-amino-2-iodo-purin-9-yl)-3,4-dihydroxy-tetrahydrofuran-2-yl]methoxy-hydroxy-phosphoryl]methylphosphonic acid

> <PUBCHEM_IUPAC_INCHI>
InChI=1S/C11H16IN5O9P2/c12-11-15-8(13)5-9(16-11)17(2-14-5)10-7(19)6(18)4(26-10)1-25-28(23,24)3-27(20,21)22/h2,4,6-7,10,18-19H,1,3H2,(H,23,24)(H2,13,15,16)(H2,20,21,22)/t4-,6-,7-,10-/m1/s1

> <PUBCHEM_IUPAC_INCHIKEY>
OJRUSAPKCPIVBY-KQYNXXCUSA-N

> <PUBCHEM_XLOGP3>
-4.1

> <PUBCHEM_EXACT_MASS>
550.9468

> <PUBCHEM_MOLECULAR_FORMULA>
C11H16IN5O9P2

> <PUBCHEM_MOLECULAR_WEIGHT>
551.13

> <PUBCHEM_OPENEYE_CAN_SMILES>
C1=NC2=C(N=C(N=C2N1C3C(C(C(O3)COP(=O)(CP(=O)(O)O)O)O)O)I)N

> <PUBCHEM_OPENEYE_ISO_SMILES>
C1=NC2=C(N=C(N=C2N1[C@H]3[C@@H]([C@@H]([C@H](O3)COP(=O)(CP(=O)(O)O)O)O)O)I)N

> <PUBCHEM_CACTVS_TPSA>
223

> <PUBCHEM_MONOISOTOPIC_WEIGHT>
550.9468

> <PUBCHEM_TOTAL_CHARGE>
0

> <PUBCHEM_HEAVY_ATOM_COUNT>
28

> <PUBCHEM_ATOM_DEF_STEREO_COUNT>
4

> <PUBCHEM_ATOM_UDEF_STEREO_COUNT>
0

> <PUBCHEM_BOND_DEF_STEREO_COUNT>
0

> <PUBCHEM_BOND_UDEF_STEREO_COUNT>
0

> <PUBCHEM_ISOTOPIC_ATOM_COUNT>
0

> <PUBCHEM_COMPONENT_COUNT>
1

> <PUBCHEM_CACTVS_TAUTO_COUNT>
-1

> <PUBCHEM_COORDINATE_TYPE>
1
5
255

> <PUBCHEM_BONDANNOTATIONS>
21  13  6
13  23  8
13  24  8
14  24  8
14  25  8
15  23  8
15  28  8
16  27  8
16  28  8
20  22  6
23  25  8
25  27  8
18  5  5
19  6  5

$$$$
