146018720
  -OEChem-05242006142D

 36 38  0     1  0  0  0  0  0999 V2000
    7.2641   -1.5000    0.0000 O   0  0  0  0  0  0  0  0  0  0  0  0
    5.5321   -1.5000    0.0000 N   0  0  0  0  0  0  0  0  0  0  0  0
    4.6660    0.0000    0.0000 C   0  0  2  0  0  0  0  0  0  0  0  0
    5.5321   -0.5000    0.0000 C   0  0  0  0  0  0  0  0  0  0  0  0
    3.8000   -0.5000    0.0000 C   0  0  0  0  0  0  0  0  0  0  0  0
    4.6660   -2.0000    0.0000 C   0  0  0  0  0  0  0  0  0  0  0  0
    3.8000   -1.5000    0.0000 C   0  0  0  0  0  0  0  0  0  0  0  0
    4.6660    1.0000    0.0000 C   0  0  0  0  0  0  0  0  0  0  0  0
    2.9061    0.0347    0.0000 C   0  0  0  0  0  0  0  0  0  0  0  0
    2.9061   -2.0347    0.0000 C   0  0  0  0  0  0  0  0  0  0  0  0
    6.3981   -2.0000    0.0000 C   0  0  0  0  0  0  0  0  0  0  0  0
    5.5321    1.5000    0.0000 C   0  0  0  0  0  0  0  0  0  0  0  0
    3.8000    1.5000    0.0000 C   0  0  0  0  0  0  0  0  0  0  0  0
    2.0000   -0.4792    0.0000 C   0  0  0  0  0  0  0  0  0  0  0  0
    2.0000   -1.5208    0.0000 C   0  0  0  0  0  0  0  0  0  0  0  0
    6.3981   -3.0000    0.0000 C   0  0  0  0  0  0  0  0  0  0  0  0
    5.5321    2.5000    0.0000 C   0  0  0  0  0  0  0  0  0  0  0  0
    3.8000    2.5000    0.0000 C   0  0  0  0  0  0  0  0  0  0  0  0
    4.6660    3.0000    0.0000 C   0  0  0  0  0  0  0  0  0  0  0  0
    5.2030    0.3100    0.0000 H   0  0  0  0  0  0  0  0  0  0  0  0
    6.1426   -0.6077    0.0000 H   0  0  0  0  0  0  0  0  0  0  0  0
    5.7441    0.0826    0.0000 H   0  0  0  0  0  0  0  0  0  0  0  0
    4.2675   -2.4750    0.0000 H   0  0  0  0  0  0  0  0  0  0  0  0
    5.0646   -2.4750    0.0000 H   0  0  0  0  0  0  0  0  0  0  0  0
    2.9132    0.6546    0.0000 H   0  0  0  0  0  0  0  0  0  0  0  0
    2.9132   -2.6546    0.0000 H   0  0  0  0  0  0  0  0  0  0  0  0
    6.0690    1.1900    0.0000 H   0  0  0  0  0  0  0  0  0  0  0  0
    3.2631    1.1900    0.0000 H   0  0  0  0  0  0  0  0  0  0  0  0
    1.4643   -0.1671    0.0000 H   0  0  0  0  0  0  0  0  0  0  0  0
    1.4643   -1.8329    0.0000 H   0  0  0  0  0  0  0  0  0  0  0  0
    5.7781   -3.0000    0.0000 H   0  0  0  0  0  0  0  0  0  0  0  0
    6.3981   -3.6200    0.0000 H   0  0  0  0  0  0  0  0  0  0  0  0
    7.0181   -3.0000    0.0000 H   0  0  0  0  0  0  0  0  0  0  0  0
    6.0690    2.8100    0.0000 H   0  0  0  0  0  0  0  0  0  0  0  0
    3.2631    2.8100    0.0000 H   0  0  0  0  0  0  0  0  0  0  0  0
    4.6660    3.6200    0.0000 H   0  0  0  0  0  0  0  0  0  0  0  0
  1 11  2  0  0  0  0
  2  4  1  0  0  0  0
  2  6  1  0  0  0  0
  2 11  1  0  0  0  0
  3  4  1  0  0  0  0
  3  5  1  0  0  0  0
  3  8  1  6  0  0  0
  3 20  1  0  0  0  0
  4 21  1  0  0  0  0
  4 22  1  0  0  0  0
  5  7  1  0  0  0  0
  5  9  2  0  0  0  0
  6  7  1  0  0  0  0
  6 23  1  0  0  0  0
  6 24  1  0  0  0  0
  7 10  2  0  0  0  0
  8 12  2  0  0  0  0
  8 13  1  0  0  0  0
  9 14  1  0  0  0  0
  9 25  1  0  0  0  0
 10 15  1  0  0  0  0
 10 26  1  0  0  0  0
 11 16  1  0  0  0  0
 12 17  1  0  0  0  0
 12 27  1  0  0  0  0
 13 18  2  0  0  0  0
 13 28  1  0  0  0  0
 14 15  2  0  0  0  0
 14 29  1  0  0  0  0
 15 30  1  0  0  0  0
 16 31  1  0  0  0  0
 16 32  1  0  0  0  0
 16 33  1  0  0  0  0
 17 19  2  0  0  0  0
 17 34  1  0  0  0  0
 18 19  1  0  0  0  0
 18 35  1  0  0  0  0
 19 36  1  0  0  0  0
M  END
> <PUBCHEM_COMPOUND_CID>
146018720

> <PUBCHEM_COMPOUND_CANONICALIZED>
1

> <PUBCHEM_CACTVS_COMPLEXITY>
321

> <PUBCHEM_CACTVS_HBOND_ACCEPTOR>
1

> <PUBCHEM_CACTVS_HBOND_DONOR>
0

> <PUBCHEM_CACTVS_ROTATABLE_BOND>
1

> <PUBCHEM_CACTVS_SUBSKEYS>
AAADceB6IAAAAAAAAAAAAAAAAAAAAAAAAAA8YIAAAAAAAACxQAAAHgAAAAAADQDBmAQyAIMAAACIAiFSEACCAAAgAAAIiAAIBIgIICKAkRGEIAhghgCIiAcQgMAOgAAAAAAQAAAAAAAAACAAAAAAAAAAAA==

> <PUBCHEM_IUPAC_OPENEYE_NAME>
1-[(4S)-4-phenyl-3,4-dihydro-1H-isoquinolin-2-yl]ethanone

> <PUBCHEM_IUPAC_CAS_NAME>
1-[(4S)-4-phenyl-3,4-dihydro-1H-isoquinolin-2-yl]ethanone

> <PUBCHEM_IUPAC_NAME_MARKUP>
1-[(4<I>S</I>)-4-phenyl-3,4-dihydro-1<I>H</I>-isoquinolin-2-yl]ethanone

> <PUBCHEM_IUPAC_NAME>
1-[(4S)-4-phenyl-3,4-dihydro-1H-isoquinolin-2-yl]ethanone

> <PUBCHEM_IUPAC_SYSTEMATIC_NAME>
1-[(4S)-4-phenyl-3,4-dihydro-1H-isoquinolin-2-yl]ethanone

> <PUBCHEM_IUPAC_TRADITIONAL_NAME>
1-[(4S)-4-phenyl-3,4-dihydro-1H-isoquinolin-2-yl]ethanone

> <PUBCHEM_IUPAC_INCHI>
InChI=1S/C17H17NO/c1-13(19)18-11-15-9-5-6-10-16(15)17(12-18)14-7-3-2-4-8-14/h2-10,17H,11-12H2,1H3/t17-/m0/s1

> <PUBCHEM_IUPAC_INCHIKEY>
SORYMMAUHZPBJM-KRWDZBQOSA-N

> <PUBCHEM_XLOGP3_AA>
2.7

> <PUBCHEM_EXACT_MASS>
251.131014

> <PUBCHEM_MOLECULAR_FORMULA>
C17H17NO

> <PUBCHEM_MOLECULAR_WEIGHT>
251.32

> <PUBCHEM_OPENEYE_CAN_SMILES>
CC(=O)N1CC(C2=CC=CC=C2C1)C3=CC=CC=C3

> <PUBCHEM_OPENEYE_ISO_SMILES>
CC(=O)N1C[C@H](C2=CC=CC=C2C1)C3=CC=CC=C3

> <PUBCHEM_CACTVS_TPSA>
20.3

> <PUBCHEM_MONOISOTOPIC_WEIGHT>
251.131014

> <PUBCHEM_TOTAL_CHARGE>
0

> <PUBCHEM_HEAVY_ATOM_COUNT>
19

> <PUBCHEM_ATOM_DEF_STEREO_COUNT>
1

> <PUBCHEM_ATOM_UDEF_STEREO_COUNT>
0

> <PUBCHEM_BOND_DEF_STEREO_COUNT>
0

> <PUBCHEM_BOND_UDEF_STEREO_COUNT>
0

> <PUBCHEM_ISOTOPIC_ATOM_COUNT>
0

> <PUBCHEM_COMPONENT_COUNT>
1

> <PUBCHEM_CACTVS_TAUTO_COUNT>
-1

> <PUBCHEM_COORDINATE_TYPE>
1
5
255

> <PUBCHEM_BONDANNOTATIONS>
10  15  8
12  17  8
13  18  8
14  15  8
17  19  8
18  19  8
3  8  6
5  7  8
5  9  8
7  10  8
8  12  8
8  13  8
9  14  8

$$$$
