146019222
  -OEChem-05242006142D

 35 35  0     1  0  0  0  0  0999 V2000
    2.0000    4.4050    0.0000 Br  0  0  0  0  0  0  0  0  0  0  0  0
    6.3301    1.9050    0.0000 O   0  0  0  0  0  0  0  0  0  0  0  0
    4.5981   -4.0950    0.0000 O   0  0  0  0  0  0  0  0  0  0  0  0
    7.1962    1.4050    0.0000 O   0  0  0  0  0  0  0  0  0  0  0  0
    6.3301   -0.0950    0.0000 N   0  0  0  0  0  0  0  0  0  0  0  0
    4.5981    1.9050    0.0000 N   0  0  0  0  0  0  0  0  0  0  0  0
    5.4641    0.4050    0.0000 C   0  0  1  0  0  0  0  0  0  0  0  0
    4.5981   -0.0950    0.0000 C   0  0  0  0  0  0  0  0  0  0  0  0
    4.5981   -1.0950    0.0000 C   0  0  0  0  0  0  0  0  0  0  0  0
    5.4641    1.4050    0.0000 C   0  0  0  0  0  0  0  0  0  0  0  0
    5.4641   -1.5950    0.0000 C   0  0  0  0  0  0  0  0  0  0  0  0
    3.7320   -1.5950    0.0000 C   0  0  0  0  0  0  0  0  0  0  0  0
    7.1962    0.4050    0.0000 C   0  0  0  0  0  0  0  0  0  0  0  0
    5.4641   -2.5950    0.0000 C   0  0  0  0  0  0  0  0  0  0  0  0
    3.7320   -2.5950    0.0000 C   0  0  0  0  0  0  0  0  0  0  0  0
    4.5981   -3.0950    0.0000 C   0  0  0  0  0  0  0  0  0  0  0  0
    4.5981    2.9050    0.0000 C   0  0  0  0  0  0  0  0  0  0  0  0
    8.0622   -0.0950    0.0000 C   0  0  0  0  0  0  0  0  0  0  0  0
    3.7320    3.4050    0.0000 C   0  0  0  0  0  0  0  0  0  0  0  0
    2.8660    3.9050    0.0000 C   0  0  0  0  0  0  0  0  0  0  0  0
    5.4641   -0.2150    0.0000 H   0  0  0  0  0  0  0  0  0  0  0  0
    4.3860    0.4876    0.0000 H   0  0  0  0  0  0  0  0  0  0  0  0
    3.9875   -0.2027    0.0000 H   0  0  0  0  0  0  0  0  0  0  0  0
    6.3301   -0.7150    0.0000 H   0  0  0  0  0  0  0  0  0  0  0  0
    6.0010   -1.2850    0.0000 H   0  0  0  0  0  0  0  0  0  0  0  0
    3.1951   -1.2850    0.0000 H   0  0  0  0  0  0  0  0  0  0  0  0
    4.0611    1.5950    0.0000 H   0  0  0  0  0  0  0  0  0  0  0  0
    6.0010   -2.9050    0.0000 H   0  0  0  0  0  0  0  0  0  0  0  0
    3.1951   -2.9050    0.0000 H   0  0  0  0  0  0  0  0  0  0  0  0
    5.2087    2.7973    0.0000 H   0  0  0  0  0  0  0  0  0  0  0  0
    4.8101    3.4876    0.0000 H   0  0  0  0  0  0  0  0  0  0  0  0
    7.7522   -0.6319    0.0000 H   0  0  0  0  0  0  0  0  0  0  0  0
    8.5991   -0.4050    0.0000 H   0  0  0  0  0  0  0  0  0  0  0  0
    8.3722    0.4419    0.0000 H   0  0  0  0  0  0  0  0  0  0  0  0
    4.0611   -4.4050    0.0000 H   0  0  0  0  0  0  0  0  0  0  0  0
  1 20  1  0  0  0  0
  2 10  2  0  0  0  0
  3 16  1  0  0  0  0
  3 35  1  0  0  0  0
  4 13  2  0  0  0  0
  7  5  1  1  0  0  0
  5 13  1  0  0  0  0
  5 24  1  0  0  0  0
  6 10  1  0  0  0  0
  6 17  1  0  0  0  0
  6 27  1  0  0  0  0
  7  8  1  0  0  0  0
  7 10  1  0  0  0  0
  7 21  1  0  0  0  0
  8  9  1  0  0  0  0
  8 22  1  0  0  0  0
  8 23  1  0  0  0  0
  9 11  2  0  0  0  0
  9 12  1  0  0  0  0
 11 14  1  0  0  0  0
 11 25  1  0  0  0  0
 12 15  2  0  0  0  0
 12 26  1  0  0  0  0
 13 18  1  0  0  0  0
 14 16  2  0  0  0  0
 14 28  1  0  0  0  0
 15 16  1  0  0  0  0
 15 29  1  0  0  0  0
 17 19  1  0  0  0  0
 17 30  1  0  0  0  0
 17 31  1  0  0  0  0
 18 32  1  0  0  0  0
 18 33  1  0  0  0  0
 18 34  1  0  0  0  0
 19 20  3  0  0  0  0
M  END
> <PUBCHEM_COMPOUND_CID>
146019222

> <PUBCHEM_COMPOUND_CANONICALIZED>
1

> <PUBCHEM_CACTVS_COMPLEXITY>
405

> <PUBCHEM_CACTVS_HBOND_ACCEPTOR>
3

> <PUBCHEM_CACTVS_HBOND_DONOR>
3

> <PUBCHEM_CACTVS_ROTATABLE_BOND>
5

> <PUBCHEM_CACTVS_SUBSKEYS>
AAADccBzMAAAEAAAAAAAAAAAAAAAAAAAAAAwAAAAAAAAAAABAAAAHgBQCAABDCzBmAQyBoLAAgDIEiFSEAACAAAgIAAIiIGOCIgIZjKCkTOUcAAk1hGImAeYyKCOIAAAAAAAAABAAAAAAAAAAAAAAAAAAA==

> <PUBCHEM_IUPAC_OPENEYE_NAME>
(2S)-2-acetamido-N-(3-bromoprop-2-ynyl)-3-(4-hydroxyphenyl)propanamide

> <PUBCHEM_IUPAC_CAS_NAME>
(2S)-2-acetamido-N-(3-bromoprop-2-ynyl)-3-(4-hydroxyphenyl)propanamide

> <PUBCHEM_IUPAC_NAME_MARKUP>
(2<I>S</I>)-2-acetamido-<I>N</I>-(3-bromoprop-2-ynyl)-3-(4-hydroxyphenyl)propanamide

> <PUBCHEM_IUPAC_NAME>
(2S)-2-acetamido-N-(3-bromoprop-2-ynyl)-3-(4-hydroxyphenyl)propanamide

> <PUBCHEM_IUPAC_SYSTEMATIC_NAME>
(2S)-2-acetamido-N-(3-bromanylprop-2-ynyl)-3-(4-hydroxyphenyl)propanamide

> <PUBCHEM_IUPAC_TRADITIONAL_NAME>
(2S)-2-acetamido-N-(3-bromoprop-2-ynyl)-3-(4-hydroxyphenyl)propionamide

> <PUBCHEM_IUPAC_INCHI>
InChI=1S/C14H15BrN2O3/c1-10(18)17-13(14(20)16-8-2-7-15)9-11-3-5-12(19)6-4-11/h3-6,13,19H,8-9H2,1H3,(H,16,20)(H,17,18)/t13-/m0/s1

> <PUBCHEM_IUPAC_INCHIKEY>
NITJFOXRSHCWBE-ZDUSSCGKSA-N

> <PUBCHEM_XLOGP3>
0.8

> <PUBCHEM_EXACT_MASS>
338.0266

> <PUBCHEM_MOLECULAR_FORMULA>
C14H15BrN2O3

> <PUBCHEM_MOLECULAR_WEIGHT>
339.18

> <PUBCHEM_OPENEYE_CAN_SMILES>
CC(=O)NC(CC1=CC=C(C=C1)O)C(=O)NCC#CBr

> <PUBCHEM_OPENEYE_ISO_SMILES>
CC(=O)N[C@@H](CC1=CC=C(C=C1)O)C(=O)NCC#CBr

> <PUBCHEM_CACTVS_TPSA>
78.4

> <PUBCHEM_MONOISOTOPIC_WEIGHT>
338.0266

> <PUBCHEM_TOTAL_CHARGE>
0

> <PUBCHEM_HEAVY_ATOM_COUNT>
20

> <PUBCHEM_ATOM_DEF_STEREO_COUNT>
1

> <PUBCHEM_ATOM_UDEF_STEREO_COUNT>
0

> <PUBCHEM_BOND_DEF_STEREO_COUNT>
0

> <PUBCHEM_BOND_UDEF_STEREO_COUNT>
0

> <PUBCHEM_ISOTOPIC_ATOM_COUNT>
0

> <PUBCHEM_COMPONENT_COUNT>
1

> <PUBCHEM_CACTVS_TAUTO_COUNT>
-1

> <PUBCHEM_COORDINATE_TYPE>
1
5
255

> <PUBCHEM_BONDANNOTATIONS>
11  14  8
12  15  8
14  16  8
15  16  8
7  5  5
9  11  8
9  12  8

$$$$
