1487531
  -OEChem-05242006122D

 28 29  0     0  0  0  0  0  0999 V2000
    4.5981   -1.7500    0.0000 O   0  0  0  0  0  0  0  0  0  0  0  0
    6.3301    2.2500    0.0000 O   0  0  0  0  0  0  0  0  0  0  0  0
    4.5981    2.2500    0.0000 N   0  0  0  0  0  0  0  0  0  0  0  0
    3.7320   -3.2500    0.0000 N   0  0  0  0  0  0  0  0  0  0  0  0
    2.8660   -1.7500    0.0000 N   0  0  0  0  0  0  0  0  0  0  0  0
    4.5981    1.2500    0.0000 C   0  0  0  0  0  0  0  0  0  0  0  0
    4.5981   -0.7500    0.0000 C   0  0  0  0  0  0  0  0  0  0  0  0
    5.4641    0.7500    0.0000 C   0  0  0  0  0  0  0  0  0  0  0  0
    3.7320    0.7500    0.0000 C   0  0  0  0  0  0  0  0  0  0  0  0
    5.4641   -0.2500    0.0000 C   0  0  0  0  0  0  0  0  0  0  0  0
    3.7320   -0.2500    0.0000 C   0  0  0  0  0  0  0  0  0  0  0  0
    5.4641    2.7500    0.0000 C   0  0  0  0  0  0  0  0  0  0  0  0
    3.7320   -2.2500    0.0000 C   0  0  0  0  0  0  0  0  0  0  0  0
    5.4641    3.7500    0.0000 C   0  0  0  0  0  0  0  0  0  0  0  0
    2.8660   -3.7500    0.0000 C   0  0  0  0  0  0  0  0  0  0  0  0
    2.0000   -2.2500    0.0000 C   0  0  0  0  0  0  0  0  0  0  0  0
    2.0000   -3.2500    0.0000 C   0  0  0  0  0  0  0  0  0  0  0  0
    6.0010    1.0600    0.0000 H   0  0  0  0  0  0  0  0  0  0  0  0
    3.1951    1.0600    0.0000 H   0  0  0  0  0  0  0  0  0  0  0  0
    6.0010   -0.5600    0.0000 H   0  0  0  0  0  0  0  0  0  0  0  0
    3.1951   -0.5600    0.0000 H   0  0  0  0  0  0  0  0  0  0  0  0
    4.0611    2.5600    0.0000 H   0  0  0  0  0  0  0  0  0  0  0  0
    6.0841    3.7500    0.0000 H   0  0  0  0  0  0  0  0  0  0  0  0
    5.4641    4.3700    0.0000 H   0  0  0  0  0  0  0  0  0  0  0  0
    4.8441    3.7500    0.0000 H   0  0  0  0  0  0  0  0  0  0  0  0
    2.8660   -4.3700    0.0000 H   0  0  0  0  0  0  0  0  0  0  0  0
    1.4631   -1.9400    0.0000 H   0  0  0  0  0  0  0  0  0  0  0  0
    1.4631   -3.5600    0.0000 H   0  0  0  0  0  0  0  0  0  0  0  0
  1  7  1  0  0  0  0
  1 13  1  0  0  0  0
  2 12  2  0  0  0  0
  3  6  1  0  0  0  0
  3 12  1  0  0  0  0
  3 22  1  0  0  0  0
  4 13  1  0  0  0  0
  4 15  2  0  0  0  0
  5 13  2  0  0  0  0
  5 16  1  0  0  0  0
  6  8  2  0  0  0  0
  6  9  1  0  0  0  0
  7 10  2  0  0  0  0
  7 11  1  0  0  0  0
  8 10  1  0  0  0  0
  8 18  1  0  0  0  0
  9 11  2  0  0  0  0
  9 19  1  0  0  0  0
 10 20  1  0  0  0  0
 11 21  1  0  0  0  0
 12 14  1  0  0  0  0
 14 23  1  0  0  0  0
 14 24  1  0  0  0  0
 14 25  1  0  0  0  0
 15 17  1  0  0  0  0
 15 26  1  0  0  0  0
 16 17  2  0  0  0  0
 16 27  1  0  0  0  0
 17 28  1  0  0  0  0
M  END
> <PUBCHEM_COMPOUND_CID>
1487531

> <PUBCHEM_COMPOUND_CANONICALIZED>
1

> <PUBCHEM_CACTVS_COMPLEXITY>
246

> <PUBCHEM_CACTVS_HBOND_ACCEPTOR>
4

> <PUBCHEM_CACTVS_HBOND_DONOR>
1

> <PUBCHEM_CACTVS_ROTATABLE_BOND>
3

> <PUBCHEM_CACTVS_SUBSKEYS>
AAADccBzMAAAAAAAAAAAAAAAAAAAAAAAAAA8QAAAAAAAAAABwAAAHgAQAAAACAzBkgQ/1pbIFACoADV3dACCiCkxIqAJ2CA+bJiMLqLE+duMNChs1BPI6CewQAAAAEAAAAAAAAAAgAAAAAAAAAAAAAAAAA==

> <PUBCHEM_IUPAC_OPENEYE_NAME>
N-(4-pyrimidin-2-yloxyphenyl)acetamide

> <PUBCHEM_IUPAC_CAS_NAME>
N-[4-(2-pyrimidinyloxy)phenyl]acetamide

> <PUBCHEM_IUPAC_NAME_MARKUP>
<I>N</I>-(4-pyrimidin-2-yloxyphenyl)acetamide

> <PUBCHEM_IUPAC_NAME>
N-(4-pyrimidin-2-yloxyphenyl)acetamide

> <PUBCHEM_IUPAC_SYSTEMATIC_NAME>
N-(4-pyrimidin-2-yloxyphenyl)ethanamide

> <PUBCHEM_IUPAC_TRADITIONAL_NAME>
N-[4-(2-pyrimidyloxy)phenyl]acetamide

> <PUBCHEM_IUPAC_INCHI>
InChI=1S/C12H11N3O2/c1-9(16)15-10-3-5-11(6-4-10)17-12-13-7-2-8-14-12/h2-8H,1H3,(H,15,16)

> <PUBCHEM_IUPAC_INCHIKEY>
DXVKZDBYLFVMFB-UHFFFAOYSA-N

> <PUBCHEM_XLOGP3_AA>
1.2

> <PUBCHEM_EXACT_MASS>
229.085127

> <PUBCHEM_MOLECULAR_FORMULA>
C12H11N3O2

> <PUBCHEM_MOLECULAR_WEIGHT>
229.23

> <PUBCHEM_OPENEYE_CAN_SMILES>
CC(=O)NC1=CC=C(C=C1)OC2=NC=CC=N2

> <PUBCHEM_OPENEYE_ISO_SMILES>
CC(=O)NC1=CC=C(C=C1)OC2=NC=CC=N2

> <PUBCHEM_CACTVS_TPSA>
64.1

> <PUBCHEM_MONOISOTOPIC_WEIGHT>
229.085127

> <PUBCHEM_TOTAL_CHARGE>
0

> <PUBCHEM_HEAVY_ATOM_COUNT>
17

> <PUBCHEM_ATOM_DEF_STEREO_COUNT>
0

> <PUBCHEM_ATOM_UDEF_STEREO_COUNT>
0

> <PUBCHEM_BOND_DEF_STEREO_COUNT>
0

> <PUBCHEM_BOND_UDEF_STEREO_COUNT>
0

> <PUBCHEM_ISOTOPIC_ATOM_COUNT>
0

> <PUBCHEM_COMPONENT_COUNT>
1

> <PUBCHEM_CACTVS_TAUTO_COUNT>
-1

> <PUBCHEM_COORDINATE_TYPE>
1
5
255

> <PUBCHEM_BONDANNOTATIONS>
15  17  8
16  17  8
4  13  8
4  15  8
5  13  8
5  16  8
6  8  8
6  9  8
7  10  8
7  11  8
8  10  8
9  11  8

$$$$
