16131138
  -OEChem-05242006132D

221226  0     1  0  0  0  0  0999 V2000
   13.6804    5.2603    0.0000 S   0  0  0  0  0  0  0  0  0  0  0  0
    7.2454  -10.4762    0.0000 O   0  0  0  0  0  0  0  0  0  0  0  0
    6.0010  -11.0302    0.0000 O   0  0  0  0  0  0  0  0  0  0  0  0
    2.5369  -12.0302    0.0000 O   0  0  0  0  0  0  0  0  0  0  0  0
    3.4030  -13.5302    0.0000 O   0  0  0  0  0  0  0  0  0  0  0  0
   10.8417  -10.2183    0.0000 O   0  0  0  0  0  0  0  0  0  0  0  0
   10.7223   -6.6147    0.0000 O   0  0  0  0  0  0  0  0  0  0  0  0
   10.9302   -5.6366    0.0000 O   0  0  0  0  0  0  0  0  0  0  0  0
   12.5050   -2.3931    0.0000 O   0  0  0  0  0  0  0  0  0  0  0  0
   12.7129   -1.4149    0.0000 O   0  0  0  0  0  0  0  0  0  0  0  0
   10.5009    0.1720    0.0000 O   0  0  0  0  0  0  0  0  0  0  0  0
    9.6224    3.6689    0.0000 O   0  0  0  0  0  0  0  0  0  0  0  0
   12.2115    6.1782    0.0000 O   0  0  0  0  0  0  0  0  0  0  0  0
    7.6236    3.7387    0.0000 O   0  0  0  0  0  0  0  0  0  0  0  0
    9.2738    8.0139    0.0000 O   0  0  0  0  0  0  0  0  0  0  0  0
    7.5632    2.0077    0.0000 O   0  0  0  0  0  0  0  0  0  0  0  0
    9.8037    8.8619    0.0000 O   0  0  0  0  0  0  0  0  0  0  0  0
    9.3343    9.7449    0.0000 O   0  0  0  0  0  0  0  0  0  0  0  0
    9.4552   13.2069    0.0000 O   0  0  0  0  0  0  0  0  0  0  0  0
   14.4521   13.0324    0.0000 O   0  0  0  0  0  0  0  0  0  0  0  0
    7.7806  -12.1235    0.0000 N   0  0  0  0  0  0  0  0  0  0  0  0
    5.1350  -12.5302    0.0000 N   0  0  0  0  0  0  0  0  0  0  0  0
    9.1475   -9.8582    0.0000 N   0  0  0  0  0  0  0  0  0  0  0  0
   11.2575   -8.2620    0.0000 N   0  0  0  0  0  0  0  0  0  0  0  0
   13.0711  -12.2257    0.0000 N   0  0  0  0  0  0  0  0  0  0  0  0
   12.6244   -5.9967    0.0000 N   0  0  0  0  0  0  0  0  0  0  0  0
   11.3460   -3.6803    0.0000 N   0  0  0  0  0  0  0  0  0  0  0  0
   15.4111   -6.3867    0.0000 N   0  0  0  0  0  0  0  0  0  0  0  0
   11.0187   -1.0548    0.0000 N   0  0  0  0  0  0  0  0  0  0  0  0
   12.0302    0.9852    0.0000 N   0  0  0  0  0  0  0  0  0  0  0  0
   14.4071   -1.7751    0.0000 N   0  0  0  0  0  0  0  0  0  0  0  0
   11.0913    2.7511    0.0000 N   0  0  0  0  0  0  0  0  0  0  0  0
   10.6822    5.3650    0.0000 N   0  0  0  0  0  0  0  0  0  0  0  0
   13.6544    1.8426    0.0000 N   0  0  0  0  0  0  0  0  0  0  0  0
   11.2726    7.9441    0.0000 N   0  0  0  0  0  0  0  0  0  0  0  0
   15.2685    1.9554    0.0000 N   0  0  0  0  0  0  0  0  0  0  0  0
   15.5661   -0.4879    0.0000 N   0  0  0  0  0  0  0  0  0  0  0  0
   16.1013   -2.1352    0.0000 N   0  0  0  0  0  0  0  0  0  0  0  0
   10.8636   10.5580    0.0000 N   0  0  0  0  0  0  0  0  0  0  0  0
    8.3953   11.5108    0.0000 N   0  0  0  0  0  0  0  0  0  0  0  0
    6.8671  -12.5302    0.0000 C   0  0  1  0  0  0  0  0  0  0  0  0
    6.9716  -13.5247    0.0000 C   0  0  0  0  0  0  0  0  0  0  0  0
    7.9497  -13.7326    0.0000 C   0  0  0  0  0  0  0  0  0  0  0  0
    8.4497  -12.8666    0.0000 C   0  0  0  0  0  0  0  0  0  0  0  0
    7.9885  -11.1453    0.0000 C   0  0  0  0  0  0  0  0  0  0  0  0
    6.0010  -12.0302    0.0000 C   0  0  0  0  0  0  0  0  0  0  0  0
    8.9396  -10.8363    0.0000 C   0  0  2  0  0  0  0  0  0  0  0  0
    9.6827  -11.5054    0.0000 C   0  0  0  0  0  0  0  0  0  0  0  0
    4.2690  -12.0302    0.0000 C   0  0  1  0  0  0  0  0  0  0  0  0
   10.6338  -11.1964    0.0000 C   0  0  0  0  0  0  0  0  0  0  0  0
    4.2690  -11.0302    0.0000 C   0  0  0  0  0  0  0  0  0  0  0  0
   11.3769  -11.8656    0.0000 C   0  0  0  0  0  0  0  0  0  0  0  0
    3.4030  -12.5302    0.0000 C   0  0  0  0  0  0  0  0  0  0  0  0
   10.0985   -9.5491    0.0000 C   0  0  0  0  0  0  0  0  0  0  0  0
    3.4030  -10.5302    0.0000 C   0  0  0  0  0  0  0  0  0  0  0  0
    5.1350  -10.5302    0.0000 C   0  0  0  0  0  0  0  0  0  0  0  0
   12.3280  -11.5565    0.0000 C   0  0  0  0  0  0  0  0  0  0  0  0
   10.3065   -8.5710    0.0000 C   0  0  0  0  0  0  0  0  0  0  0  0
   12.4165   -6.9748    0.0000 C   0  0  2  0  0  0  0  0  0  0  0  0
   11.4654   -7.2838    0.0000 C   0  0  0  0  0  0  0  0  0  0  0  0
   13.1596   -7.6439    0.0000 C   0  0  0  0  0  0  0  0  0  0  0  0
   14.1107   -7.3349    0.0000 C   0  0  0  0  0  0  0  0  0  0  0  0
   12.0892   -4.3494    0.0000 C   0  0  2  0  0  0  0  0  0  0  0  0
   11.8812   -5.3275    0.0000 C   0  0  0  0  0  0  0  0  0  0  0  0
   13.0402   -4.0404    0.0000 C   0  0  0  0  0  0  0  0  0  0  0  0
   14.9144   -7.9199    0.0000 C   0  0  0  0  0  0  0  0  0  0  0  0
   14.4171   -6.3892    0.0000 C   0  0  0  0  0  0  0  0  0  0  0  0
   13.2481   -3.0622    0.0000 C   0  0  0  0  0  0  0  0  0  0  0  0
   15.7224   -7.3307    0.0000 C   0  0  0  0  0  0  0  0  0  0  0  0
   10.8108   -2.0330    0.0000 C   0  0  2  0  0  0  0  0  0  0  0  0
   11.5539   -2.7021    0.0000 C   0  0  0  0  0  0  0  0  0  0  0  0
   15.0207   -8.9143    0.0000 C   0  0  0  0  0  0  0  0  0  0  0  0
   14.1992   -2.7532    0.0000 C   0  0  0  0  0  0  0  0  0  0  0  0
    9.8597   -2.3420    0.0000 C   0  0  0  0  0  0  0  0  0  0  0  0
   16.6367   -7.7359    0.0000 C   0  0  0  0  0  0  0  0  0  0  0  0
   12.4997    0.1022    0.0000 C   0  0  2  0  0  0  0  0  0  0  0  0
   11.9697   -0.7458    0.0000 C   0  0  0  0  0  0  0  0  0  0  0  0
   15.9349   -9.3194    0.0000 C   0  0  0  0  0  0  0  0  0  0  0  0
   10.5613    1.9030    0.0000 C   0  0  2  0  0  0  0  0  0  0  0  0
   13.4991    0.0673    0.0000 C   0  0  0  0  0  0  0  0  0  0  0  0
   16.7429   -8.7302    0.0000 C   0  0  0  0  0  0  0  0  0  0  0  0
    9.1166   -1.6729    0.0000 C   0  0  0  0  0  0  0  0  0  0  0  0
   11.0308    1.0201    0.0000 C   0  0  0  0  0  0  0  0  0  0  0  0
    9.5619    1.9379    0.0000 C   0  0  0  0  0  0  0  0  0  0  0  0
   11.1517    4.4821    0.0000 C   0  0  2  0  0  0  0  0  0  0  0  0
   14.0290    0.9154    0.0000 C   0  0  0  0  0  0  0  0  0  0  0  0
   10.6218    3.6340    0.0000 C   0  0  0  0  0  0  0  0  0  0  0  0
   12.1511    4.4472    0.0000 C   0  0  0  0  0  0  0  0  0  0  0  0
    9.0925    2.8209    0.0000 C   0  0  0  0  0  0  0  0  0  0  0  0
    9.3245   -0.6947    0.0000 C   0  0  0  0  0  0  0  0  0  0  0  0
    8.1655   -1.9819    0.0000 C   0  0  0  0  0  0  0  0  0  0  0  0
   15.3582   -1.4660    0.0000 C   0  0  0  0  0  0  0  0  0  0  0  0
   10.7427    7.0960    0.0000 C   0  0  2  0  0  0  0  0  0  0  0  0
   15.0265    0.9851    0.0000 C   0  0  0  0  0  0  0  0  0  0  0  0
   12.6810    5.2952    0.0000 C   0  0  0  0  0  0  0  0  0  0  0  0
    8.5814   -0.0256    0.0000 C   0  0  0  0  0  0  0  0  0  0  0  0
    7.4224   -1.3128    0.0000 C   0  0  0  0  0  0  0  0  0  0  0  0
   11.2121    6.2131    0.0000 C   0  0  0  0  0  0  0  0  0  0  0  0
    7.6303   -0.3346    0.0000 C   0  0  0  0  0  0  0  0  0  0  0  0
    8.0931    2.8558    0.0000 C   0  0  0  0  0  0  0  0  0  0  0  0
   11.3330    9.6751    0.0000 C   0  0  2  0  0  0  0  0  0  0  0  0
   14.4204    2.4854    0.0000 C   0  0  0  0  0  0  0  0  0  0  0  0
    9.7433    7.1309    0.0000 C   0  0  0  0  0  0  0  0  0  0  0  0
   10.8031    8.8270    0.0000 C   0  0  0  0  0  0  0  0  0  0  0  0
   12.3324    9.6402    0.0000 C   0  0  0  0  0  0  0  0  0  0  0  0
   12.8624   10.4882    0.0000 C   0  0  0  0  0  0  0  0  0  0  0  0
    9.8642   10.5929    0.0000 C   0  0  0  0  0  0  0  0  0  0  0  0
   14.2103    6.1084    0.0000 C   0  0  0  0  0  0  0  0  0  0  0  0
    9.3947   11.4759    0.0000 C   0  0  2  0  0  0  0  0  0  0  0  0
   12.3929   11.3712    0.0000 C   0  0  0  0  0  0  0  0  0  0  0  0
   13.8617   10.4533    0.0000 C   0  0  0  0  0  0  0  0  0  0  0  0
    9.9246   12.3239    0.0000 C   0  0  0  0  0  0  0  0  0  0  0  0
   12.9228   12.2192    0.0000 C   0  0  0  0  0  0  0  0  0  0  0  0
   14.3917   11.3014    0.0000 C   0  0  0  0  0  0  0  0  0  0  0  0
   13.9222   12.1843    0.0000 C   0  0  0  0  0  0  0  0  0  0  0  0
    6.8995  -11.9111    0.0000 H   0  0  0  0  0  0  0  0  0  0  0  0
    6.3516  -13.5247    0.0000 H   0  0  0  0  0  0  0  0  0  0  0  0
    6.9068  -14.1413    0.0000 H   0  0  0  0  0  0  0  0  0  0  0  0
    7.7582  -14.3223    0.0000 H   0  0  0  0  0  0  0  0  0  0  0  0
    8.5161  -13.9848    0.0000 H   0  0  0  0  0  0  0  0  0  0  0  0
    8.9513  -13.2310    0.0000 H   0  0  0  0  0  0  0  0  0  0  0  0
    8.8646  -12.4059    0.0000 H   0  0  0  0  0  0  0  0  0  0  0  0
    9.5292  -10.6447    0.0000 H   0  0  0  0  0  0  0  0  0  0  0  0
    9.1942  -11.8871    0.0000 H   0  0  0  0  0  0  0  0  0  0  0  0
    9.9738  -12.0529    0.0000 H   0  0  0  0  0  0  0  0  0  0  0  0
    5.1350  -13.1502    0.0000 H   0  0  0  0  0  0  0  0  0  0  0  0
    4.2690  -12.6502    0.0000 H   0  0  0  0  0  0  0  0  0  0  0  0
   11.1223  -10.8147    0.0000 H   0  0  0  0  0  0  0  0  0  0  0  0
   10.3427  -10.6490    0.0000 H   0  0  0  0  0  0  0  0  0  0  0  0
    8.6867   -9.4433    0.0000 H   0  0  0  0  0  0  0  0  0  0  0  0
    4.8059  -11.3402    0.0000 H   0  0  0  0  0  0  0  0  0  0  0  0
   10.8884  -12.2473    0.0000 H   0  0  0  0  0  0  0  0  0  0  0  0
   11.6680  -12.4130    0.0000 H   0  0  0  0  0  0  0  0  0  0  0  0
    3.7130   -9.9933    0.0000 H   0  0  0  0  0  0  0  0  0  0  0  0
    2.8660  -10.2202    0.0000 H   0  0  0  0  0  0  0  0  0  0  0  0
    3.0930  -11.0671    0.0000 H   0  0  0  0  0  0  0  0  0  0  0  0
    5.4450  -11.0671    0.0000 H   0  0  0  0  0  0  0  0  0  0  0  0
    5.6720  -10.2202    0.0000 H   0  0  0  0  0  0  0  0  0  0  0  0
    4.8250   -9.9933    0.0000 H   0  0  0  0  0  0  0  0  0  0  0  0
   12.8165  -11.1748    0.0000 H   0  0  0  0  0  0  0  0  0  0  0  0
   12.0369  -11.0091    0.0000 H   0  0  0  0  0  0  0  0  0  0  0  0
   10.2202   -7.9570    0.0000 H   0  0  0  0  0  0  0  0  0  0  0  0
    9.6868   -8.5494    0.0000 H   0  0  0  0  0  0  0  0  0  0  0  0
    2.0000  -12.3402    0.0000 H   0  0  0  0  0  0  0  0  0  0  0  0
   11.7183   -8.6768    0.0000 H   0  0  0  0  0  0  0  0  0  0  0  0
   13.6608  -12.0341    0.0000 H   0  0  0  0  0  0  0  0  0  0  0  0
   12.9422  -12.8321    0.0000 H   0  0  0  0  0  0  0  0  0  0  0  0
   13.0061   -6.7832    0.0000 H   0  0  0  0  0  0  0  0  0  0  0  0
   12.6711   -8.0256    0.0000 H   0  0  0  0  0  0  0  0  0  0  0  0
   13.4507   -8.1914    0.0000 H   0  0  0  0  0  0  0  0  0  0  0  0
   13.2140   -5.8051    0.0000 H   0  0  0  0  0  0  0  0  0  0  0  0
   11.4995   -4.5410    0.0000 H   0  0  0  0  0  0  0  0  0  0  0  0
   13.1265   -4.6543    0.0000 H   0  0  0  0  0  0  0  0  0  0  0  0
   13.6598   -4.0620    0.0000 H   0  0  0  0  0  0  0  0  0  0  0  0
   14.0518   -5.8883    0.0000 H   0  0  0  0  0  0  0  0  0  0  0  0
   10.7564   -3.8718    0.0000 H   0  0  0  0  0  0  0  0  0  0  0  0
   13.1618   -2.4483    0.0000 H   0  0  0  0  0  0  0  0  0  0  0  0
   12.6285   -3.0406    0.0000 H   0  0  0  0  0  0  0  0  0  0  0  0
   11.4004   -1.8414    0.0000 H   0  0  0  0  0  0  0  0  0  0  0  0
   15.7738   -5.8838    0.0000 H   0  0  0  0  0  0  0  0  0  0  0  0
   14.5197   -9.2796    0.0000 H   0  0  0  0  0  0  0  0  0  0  0  0
   14.2855   -3.3672    0.0000 H   0  0  0  0  0  0  0  0  0  0  0  0
   14.8188   -2.7748    0.0000 H   0  0  0  0  0  0  0  0  0  0  0  0
    9.3712   -2.7237    0.0000 H   0  0  0  0  0  0  0  0  0  0  0  0
   10.1508   -2.8894    0.0000 H   0  0  0  0  0  0  0  0  0  0  0  0
   12.8282    0.6280    0.0000 H   0  0  0  0  0  0  0  0  0  0  0  0
   17.1376   -7.3706    0.0000 H   0  0  0  0  0  0  0  0  0  0  0  0
   10.4438   -0.8226    0.0000 H   0  0  0  0  0  0  0  0  0  0  0  0
   16.0008   -9.9359    0.0000 H   0  0  0  0  0  0  0  0  0  0  0  0
   10.2703    2.4505    0.0000 H   0  0  0  0  0  0  0  0  0  0  0  0
   13.3702   -0.5391    0.0000 H   0  0  0  0  0  0  0  0  0  0  0  0
   14.0739   -0.1649    0.0000 H   0  0  0  0  0  0  0  0  0  0  0  0
   17.3097   -8.9814    0.0000 H   0  0  0  0  0  0  0  0  0  0  0  0
   12.3587    1.5110    0.0000 H   0  0  0  0  0  0  0  0  0  0  0  0
    8.9723    1.7463    0.0000 H   0  0  0  0  0  0  0  0  0  0  0  0
    9.6482    1.3240    0.0000 H   0  0  0  0  0  0  0  0  0  0  0  0
   13.9463   -1.3602    0.0000 H   0  0  0  0  0  0  0  0  0  0  0  0
   11.4803    5.0079    0.0000 H   0  0  0  0  0  0  0  0  0  0  0  0
   11.7109    2.7294    0.0000 H   0  0  0  0  0  0  0  0  0  0  0  0
   12.0222    3.8407    0.0000 H   0  0  0  0  0  0  0  0  0  0  0  0
   12.7259    4.2149    0.0000 H   0  0  0  0  0  0  0  0  0  0  0  0
    9.6821    3.0125    0.0000 H   0  0  0  0  0  0  0  0  0  0  0  0
    9.0062    3.4348    0.0000 H   0  0  0  0  0  0  0  0  0  0  0  0
    9.9142   -0.5031    0.0000 H   0  0  0  0  0  0  0  0  0  0  0  0
    8.0366   -2.5883    0.0000 H   0  0  0  0  0  0  0  0  0  0  0  0
   10.0626    5.3867    0.0000 H   0  0  0  0  0  0  0  0  0  0  0  0
   13.0528    1.9926    0.0000 H   0  0  0  0  0  0  0  0  0  0  0  0
   10.4516    7.6434    0.0000 H   0  0  0  0  0  0  0  0  0  0  0  0
   15.4251    0.5102    0.0000 H   0  0  0  0  0  0  0  0  0  0  0  0
   12.8099    5.9017    0.0000 H   0  0  0  0  0  0  0  0  0  0  0  0
   12.1062    5.5275    0.0000 H   0  0  0  0  0  0  0  0  0  0  0  0
    8.7102    0.5809    0.0000 H   0  0  0  0  0  0  0  0  0  0  0  0
    6.8327   -1.5043    0.0000 H   0  0  0  0  0  0  0  0  0  0  0  0
    7.1695    0.0803    0.0000 H   0  0  0  0  0  0  0  0  0  0  0  0
   10.7134    9.6967    0.0000 H   0  0  0  0  0  0  0  0  0  0  0  0
   11.8922    7.9224    0.0000 H   0  0  0  0  0  0  0  0  0  0  0  0
   14.3772    3.1038    0.0000 H   0  0  0  0  0  0  0  0  0  0  0  0
    9.1536    6.9393    0.0000 H   0  0  0  0  0  0  0  0  0  0  0  0
    9.8296    6.5169    0.0000 H   0  0  0  0  0  0  0  0  0  0  0  0
   12.2035    9.0337    0.0000 H   0  0  0  0  0  0  0  0  0  0  0  0
   12.9073    9.4079    0.0000 H   0  0  0  0  0  0  0  0  0  0  0  0
   16.1557   -0.2963    0.0000 H   0  0  0  0  0  0  0  0  0  0  0  0
   15.1053   -0.0730    0.0000 H   0  0  0  0  0  0  0  0  0  0  0  0
   16.6910   -1.9436    0.0000 H   0  0  0  0  0  0  0  0  0  0  0  0
   11.1921   11.0838    0.0000 H   0  0  0  0  0  0  0  0  0  0  0  0
    7.0040    3.7604    0.0000 H   0  0  0  0  0  0  0  0  0  0  0  0
   14.7361    5.7798    0.0000 H   0  0  0  0  0  0  0  0  0  0  0  0
   14.5389    6.6342    0.0000 H   0  0  0  0  0  0  0  0  0  0  0  0
   13.6845    6.4369    0.0000 H   0  0  0  0  0  0  0  0  0  0  0  0
    9.0662   10.9501    0.0000 H   0  0  0  0  0  0  0  0  0  0  0  0
    8.6542    8.0355    0.0000 H   0  0  0  0  0  0  0  0  0  0  0  0
   11.7733   11.3928    0.0000 H   0  0  0  0  0  0  0  0  0  0  0  0
   14.1528    9.9059    0.0000 H   0  0  0  0  0  0  0  0  0  0  0  0
   10.3854   11.9090    0.0000 H   0  0  0  0  0  0  0  0  0  0  0  0
   10.4132   12.7056    0.0000 H   0  0  0  0  0  0  0  0  0  0  0  0
   12.6317   12.7666    0.0000 H   0  0  0  0  0  0  0  0  0  0  0  0
   15.0113   11.2797    0.0000 H   0  0  0  0  0  0  0  0  0  0  0  0
    8.1042   12.0582    0.0000 H   0  0  0  0  0  0  0  0  0  0  0  0
    8.0668   10.9850    0.0000 H   0  0  0  0  0  0  0  0  0  0  0  0
    9.7837   13.7326    0.0000 H   0  0  0  0  0  0  0  0  0  0  0  0
   15.0717   13.0107    0.0000 H   0  0  0  0  0  0  0  0  0  0  0  0
  1 95  1  0  0  0  0
  1108  1  0  0  0  0
  2 45  2  0  0  0  0
  3 46  2  0  0  0  0
  4 53  1  0  0  0  0
  4144  1  0  0  0  0
  5 53  2  0  0  0  0
  6 54  2  0  0  0  0
  7 60  2  0  0  0  0
  8 64  2  0  0  0  0
  9 71  2  0  0  0  0
 10 77  2  0  0  0  0
 11 83  2  0  0  0  0
 12 87  2  0  0  0  0
 13 98  2  0  0  0  0
 14100  1  0  0  0  0
 14206  1  0  0  0  0
 15103  1  0  0  0  0
 15211  1  0  0  0  0
 16100  2  0  0  0  0
 17104  2  0  0  0  0
 18107  2  0  0  0  0
 19112  1  0  0  0  0
 19220  1  0  0  0  0
 20115  1  0  0  0  0
 20221  1  0  0  0  0
 21 41  1  0  0  0  0
 21 44  1  0  0  0  0
 21 45  1  0  0  0  0
 22 46  1  0  0  0  0
 49 22  1  6  0  0  0
 22126  1  0  0  0  0
 47 23  1  1  0  0  0
 23 54  1  0  0  0  0
 23130  1  0  0  0  0
 24 58  1  0  0  0  0
 24 60  1  0  0  0  0
 24145  1  0  0  0  0
 25 57  1  0  0  0  0
 25146  1  0  0  0  0
 25147  1  0  0  0  0
 59 26  1  1  0  0  0
 26 64  1  0  0  0  0
 26151  1  0  0  0  0
 63 27  1  1  0  0  0
 27 71  1  0  0  0  0
 27156  1  0  0  0  0
 28 67  1  0  0  0  0
 28 69  1  0  0  0  0
 28160  1  0  0  0  0
 70 29  1  6  0  0  0
 29 77  1  0  0  0  0
 29168  1  0  0  0  0
 76 30  1  1  0  0  0
 30 83  1  0  0  0  0
 30174  1  0  0  0  0
 31 73  1  0  0  0  0
 31 92  1  0  0  0  0
 31177  1  0  0  0  0
 79 32  1  6  0  0  0
 32 87  1  0  0  0  0
 32179  1  0  0  0  0
 85 33  1  1  0  0  0
 33 98  1  0  0  0  0
 33186  1  0  0  0  0
 34 86  1  0  0  0  0
 34102  1  0  0  0  0
 34187  1  0  0  0  0
 93 35  1  6  0  0  0
 35104  1  0  0  0  0
 35196  1  0  0  0  0
 36 94  1  0  0  0  0
 36102  2  0  0  0  0
 37 92  1  0  0  0  0
 37202  1  0  0  0  0
 37203  1  0  0  0  0
 38 92  2  0  0  0  0
 38204  1  0  0  0  0
101 39  1  1  0  0  0
 39107  1  0  0  0  0
 39205  1  0  0  0  0
109 40  1  1  0  0  0
 40218  1  0  0  0  0
 40219  1  0  0  0  0
 41 42  1  0  0  0  0
 41 46  1  1  0  0  0
 41116  1  0  0  0  0
 42 43  1  0  0  0  0
 42117  1  0  0  0  0
 42118  1  0  0  0  0
 43 44  1  0  0  0  0
 43119  1  0  0  0  0
 43120  1  0  0  0  0
 44121  1  0  0  0  0
 44122  1  0  0  0  0
 45 47  1  0  0  0  0
 47 48  1  0  0  0  0
 47123  1  0  0  0  0
 48 50  1  0  0  0  0
 48124  1  0  0  0  0
 48125  1  0  0  0  0
 49 51  1  0  0  0  0
 49 53  1  0  0  0  0
 49127  1  0  0  0  0
 50 52  1  0  0  0  0
 50128  1  0  0  0  0
 50129  1  0  0  0  0
 51 55  1  0  0  0  0
 51 56  1  0  0  0  0
 51131  1  0  0  0  0
 52 57  1  0  0  0  0
 52132  1  0  0  0  0
 52133  1  0  0  0  0
 54 58  1  0  0  0  0
 55134  1  0  0  0  0
 55135  1  0  0  0  0
 55136  1  0  0  0  0
 56137  1  0  0  0  0
 56138  1  0  0  0  0
 56139  1  0  0  0  0
 57140  1  0  0  0  0
 57141  1  0  0  0  0
 58142  1  0  0  0  0
 58143  1  0  0  0  0
 59 60  1  0  0  0  0
 59 61  1  0  0  0  0
 59148  1  0  0  0  0
 61 62  1  0  0  0  0
 61149  1  0  0  0  0
 61150  1  0  0  0  0
 62 66  1  0  0  0  0
 62 67  2  0  0  0  0
 63 64  1  0  0  0  0
 63 65  1  0  0  0  0
 63152  1  0  0  0  0
 65 68  1  0  0  0  0
 65153  1  0  0  0  0
 65154  1  0  0  0  0
 66 69  1  0  0  0  0
 66 72  2  0  0  0  0
 67155  1  0  0  0  0
 68 73  1  0  0  0  0
 68157  1  0  0  0  0
 68158  1  0  0  0  0
 69 75  2  0  0  0  0
 70 71  1  0  0  0  0
 70 74  1  0  0  0  0
 70159  1  0  0  0  0
 72 78  1  0  0  0  0
 72161  1  0  0  0  0
 73162  1  0  0  0  0
 73163  1  0  0  0  0
 74 82  1  0  0  0  0
 74164  1  0  0  0  0
 74165  1  0  0  0  0
 75 81  1  0  0  0  0
 75167  1  0  0  0  0
 76 77  1  0  0  0  0
 76 80  1  0  0  0  0
 76166  1  0  0  0  0
 78 81  2  0  0  0  0
 78169  1  0  0  0  0
 79 83  1  0  0  0  0
 79 84  1  0  0  0  0
 79170  1  0  0  0  0
 80 86  1  0  0  0  0
 80171  1  0  0  0  0
 80172  1  0  0  0  0
 81173  1  0  0  0  0
 82 90  2  0  0  0  0
 82 91  1  0  0  0  0
 84 89  1  0  0  0  0
 84175  1  0  0  0  0
 84176  1  0  0  0  0
 85 87  1  0  0  0  0
 85 88  1  0  0  0  0
 85178  1  0  0  0  0
 86 94  2  0  0  0  0
 88 95  1  0  0  0  0
 88180  1  0  0  0  0
 88181  1  0  0  0  0
 89100  1  0  0  0  0
 89182  1  0  0  0  0
 89183  1  0  0  0  0
 90 96  1  0  0  0  0
 90184  1  0  0  0  0
 91 97  2  0  0  0  0
 91185  1  0  0  0  0
 93 98  1  0  0  0  0
 93103  1  0  0  0  0
 93188  1  0  0  0  0
 94189  1  0  0  0  0
 95190  1  0  0  0  0
 95191  1  0  0  0  0
 96 99  2  0  0  0  0
 96192  1  0  0  0  0
 97 99  1  0  0  0  0
 97193  1  0  0  0  0
 99194  1  0  0  0  0
101104  1  0  0  0  0
101105  1  0  0  0  0
101195  1  0  0  0  0
102197  1  0  0  0  0
103198  1  0  0  0  0
103199  1  0  0  0  0
105106  1  0  0  0  0
105200  1  0  0  0  0
105201  1  0  0  0  0
106110  2  0  0  0  0
106111  1  0  0  0  0
107109  1  0  0  0  0
108207  1  0  0  0  0
108208  1  0  0  0  0
108209  1  0  0  0  0
109112  1  0  0  0  0
109210  1  0  0  0  0
110113  1  0  0  0  0
110212  1  0  0  0  0
111114  2  0  0  0  0
111213  1  0  0  0  0
112214  1  0  0  0  0
112215  1  0  0  0  0
113115  2  0  0  0  0
113216  1  0  0  0  0
114115  1  0  0  0  0
114217  1  0  0  0  0
M  END
> <PUBCHEM_COMPOUND_CID>
16131138

> <PUBCHEM_COMPOUND_CANONICALIZED>
1

> <PUBCHEM_CACTVS_COMPLEXITY>
3240

> <PUBCHEM_CACTVS_HBOND_ACCEPTOR>
24

> <PUBCHEM_CACTVS_HBOND_DONOR>
23

> <PUBCHEM_CACTVS_ROTATABLE_BOND>
50

> <PUBCHEM_CACTVS_SUBSKEYS>
AAADcfB//gBAAAAAAAAAAAAAAAAAAWLFgAAwYMAAAAAAAFgB/AAAHgQQCAAADSzl3ga/3vfJkgioAzX3fACCgC2xMrAJ2aG+fJiKfvbi2bOUcAhu9hPY2Ce83+KOoAAAAAACAABAAAAAAAQAAAAAAAAAAA==

> <PUBCHEM_IUPAC_OPENEYE_NAME>
(4S)-5-[[(1S)-2-[[(1S)-2-[[(1S)-1-[[(1S)-2-[[2-[[(1S)-5-amino-1-[(2S)-2-[[(1S)-1-carboxy-2-methyl-propyl]carbamoyl]pyrrolidine-1-carbonyl]pentyl]amino]-2-oxo-ethyl]amino]-1-(1H-indol-3-ylmethyl)-2-oxo-ethyl]carbamoyl]-4-guanidino-butyl]amino]-1-benzyl-2-oxo-ethyl]amino]-1-(1H-imidazol-5-ylmethyl)-2-oxo-ethyl]amino]-4-[[(2S)-2-[[(2S)-2-[[(2S)-2-[[(2S)-2-amino-3-hydroxy-propanoyl]amino]-3-(4-hydroxyphenyl)propanoyl]amino]-3-hydroxy-propanoyl]amino]-4-methylsulfanyl-butanoyl]amino]-5-oxo-pentanoic acid

> <PUBCHEM_IUPAC_CAS_NAME>
(4S)-5-[[(2S)-1-[[(2S)-1-[[(2S)-1-[[(2S)-1-[[2-[[(2S)-6-amino-1-[(2S)-2-[[[(1S)-1-carboxy-2-methylpropyl]amino]-oxomethyl]-1-pyrrolidinyl]-1-oxohexan-2-yl]amino]-2-oxoethyl]amino]-3-(1H-indol-3-yl)-1-oxopropan-2-yl]amino]-5-carbamimidamido-1-oxopentan-2-yl]amino]-1-oxo-3-phenylpropan-2-yl]amino]-3-(1H-imidazol-5-yl)-1-oxopropan-2-yl]amino]-4-[[(2S)-2-[[(2S)-2-[[(2S)-2-[[(2S)-2-amino-3-hydroxy-1-oxopropyl]amino]-3-(4-hydroxyphenyl)-1-oxopropyl]amino]-3-hydroxy-1-oxopropyl]amino]-4-(methylthio)-1-oxobutyl]amino]-5-oxopentanoic acid

> <PUBCHEM_IUPAC_NAME_MARKUP>
(4<I>S</I>)-5-[[(2<I>S</I>)-1-[[(2<I>S</I>)-1-[[(2<I>S</I>)-1-[[(2<I>S</I>)-1-[[2-[[(2<I>S</I>)-6-amino-1-[(2<I>S</I>)-2-[[(1<I>S</I>)-1-carboxy-2-methylpropyl]carbamoyl]pyrrolidin-1-yl]-1-oxohexan-2-yl]amino]-2-oxoethyl]amino]-3-(1<I>H</I>-indol-3-yl)-1-oxopropan-2-yl]amino]-5-carbamimidamido-1-oxopentan-2-yl]amino]-1-oxo-3-phenylpropan-2-yl]amino]-3-(1<I>H</I>-imidazol-5-yl)-1-oxopropan-2-yl]amino]-4-[[(2<I>S</I>)-2-[[(2<I>S</I>)-2-[[(2<I>S</I>)-2-[[(2<I>S</I>)-2-amino-3-hydroxypropanoyl]amino]-3-(4-hydroxyphenyl)propanoyl]amino]-3-hydroxypropanoyl]amino]-4-methylsulfanylbutanoyl]amino]-5-oxopentanoic acid

> <PUBCHEM_IUPAC_NAME>
(4S)-5-[[(2S)-1-[[(2S)-1-[[(2S)-1-[[(2S)-1-[[2-[[(2S)-6-amino-1-[(2S)-2-[[(1S)-1-carboxy-2-methylpropyl]carbamoyl]pyrrolidin-1-yl]-1-oxohexan-2-yl]amino]-2-oxoethyl]amino]-3-(1H-indol-3-yl)-1-oxopropan-2-yl]amino]-5-carbamimidamido-1-oxopentan-2-yl]amino]-1-oxo-3-phenylpropan-2-yl]amino]-3-(1H-imidazol-5-yl)-1-oxopropan-2-yl]amino]-4-[[(2S)-2-[[(2S)-2-[[(2S)-2-[[(2S)-2-amino-3-hydroxypropanoyl]amino]-3-(4-hydroxyphenyl)propanoyl]amino]-3-hydroxypropanoyl]amino]-4-methylsulfanylbutanoyl]amino]-5-oxopentanoic acid

> <PUBCHEM_IUPAC_SYSTEMATIC_NAME>
(4S)-5-[[(2S)-1-[[(2S)-1-[[(2S)-1-[[(2S)-1-[[2-[[(2S)-6-azanyl-1-[(2S)-2-[[(2S)-3-methyl-1-oxidanyl-1-oxidanylidene-butan-2-yl]carbamoyl]pyrrolidin-1-yl]-1-oxidanylidene-hexan-2-yl]amino]-2-oxidanylidene-ethyl]amino]-3-(1H-indol-3-yl)-1-oxidanylidene-propan-2-yl]amino]-5-carbamimidamido-1-oxidanylidene-pentan-2-yl]amino]-1-oxidanylidene-3-phenyl-propan-2-yl]amino]-3-(1H-imidazol-5-yl)-1-oxidanylidene-propan-2-yl]amino]-4-[[(2S)-2-[[(2S)-2-[[(2S)-2-[[(2S)-2-azanyl-3-oxidanyl-propanoyl]amino]-3-(4-hydroxyphenyl)propanoyl]amino]-3-oxidanyl-propanoyl]amino]-4-methylsulfanyl-butanoyl]amino]-5-oxidanylidene-pentanoic acid

> <PUBCHEM_IUPAC_TRADITIONAL_NAME>
(4S)-5-[[(1S)-2-[[(1S)-2-[[(1S)-1-[[(1S)-2-[[2-[[(1S)-5-amino-1-[(2S)-2-[[(1S)-1-carboxy-2-methyl-propyl]carbamoyl]pyrrolidine-1-carbonyl]pentyl]amino]-2-keto-ethyl]amino]-1-(1H-indol-3-ylmethyl)-2-keto-ethyl]carbamoyl]-4-guanidino-butyl]amino]-1-benzyl-2-keto-ethyl]amino]-1-(1H-imidazol-5-ylmethyl)-2-keto-ethyl]amino]-4-[[(2S)-2-[[(2S)-2-[[(2S)-2-[[(2S)-2-amino-3-hydroxy-propanoyl]amino]-3-(4-hydroxyphenyl)propanoyl]amino]-3-hydroxy-propanoyl]amino]-4-(methylthio)butanoyl]amino]-5-keto-valeric acid

> <PUBCHEM_IUPAC_INCHI>
InChI=1S/C75H106N20O19S/c1-41(2)62(74(113)114)94-72(111)59-19-12-29-95(59)73(112)53(17-9-10-27-76)85-60(99)37-83-64(103)56(33-44-35-82-49-16-8-7-15-47(44)49)91-65(104)50(18-11-28-81-75(78)79)86-68(107)55(31-42-13-5-4-6-14-42)90-70(109)57(34-45-36-80-40-84-45)92-66(105)51(24-25-61(100)101)87-67(106)52(26-30-115-3)88-71(110)58(39-97)93-69(108)54(89-63(102)48(77)38-96)32-43-20-22-46(98)23-21-43/h4-8,13-16,20-23,35-36,40-41,48,50-59,62,82,96-98H,9-12,17-19,24-34,37-39,76-77H2,1-3H3,(H,80,84)(H,83,103)(H,85,99)(H,86,107)(H,87,106)(H,88,110)(H,89,102)(H,90,109)(H,91,104)(H,92,105)(H,93,108)(H,94,111)(H,100,101)(H,113,114)(H4,78,79,81)/t48-,50-,51-,52-,53-,54-,55-,56-,57-,58-,59-,62-/m0/s1

> <PUBCHEM_IUPAC_INCHIKEY>
VGBVAARMQYYITG-DESRROFGSA-N

> <PUBCHEM_XLOGP3_AA>
-6.2

> <PUBCHEM_EXACT_MASS>
1622.766382

> <PUBCHEM_MOLECULAR_FORMULA>
C75H106N20O19S

> <PUBCHEM_MOLECULAR_WEIGHT>
1623.8

> <PUBCHEM_OPENEYE_CAN_SMILES>
CC(C)C(C(=O)O)NC(=O)C1CCCN1C(=O)C(CCCCN)NC(=O)CNC(=O)C(CC2=CNC3=CC=CC=C32)NC(=O)C(CCCNC(=N)N)NC(=O)C(CC4=CC=CC=C4)NC(=O)C(CC5=CN=CN5)NC(=O)C(CCC(=O)O)NC(=O)C(CCSC)NC(=O)C(CO)NC(=O)C(CC6=CC=C(C=C6)O)NC(=O)C(CO)N

> <PUBCHEM_OPENEYE_ISO_SMILES>
CC(C)[C@@H](C(=O)O)NC(=O)[C@@H]1CCCN1C(=O)[C@H](CCCCN)NC(=O)CNC(=O)[C@H](CC2=CNC3=CC=CC=C32)NC(=O)[C@H](CCCNC(=N)N)NC(=O)[C@H](CC4=CC=CC=C4)NC(=O)[C@H](CC5=CN=CN5)NC(=O)[C@H](CCC(=O)O)NC(=O)[C@H](CCSC)NC(=O)[C@H](CO)NC(=O)[C@H](CC6=CC=C(C=C6)O)NC(=O)[C@H](CO)N

> <PUBCHEM_CACTVS_TPSA>
659

> <PUBCHEM_MONOISOTOPIC_WEIGHT>
1622.766382

> <PUBCHEM_TOTAL_CHARGE>
0

> <PUBCHEM_HEAVY_ATOM_COUNT>
115

> <PUBCHEM_ATOM_DEF_STEREO_COUNT>
12

> <PUBCHEM_ATOM_UDEF_STEREO_COUNT>
0

> <PUBCHEM_BOND_DEF_STEREO_COUNT>
0

> <PUBCHEM_BOND_UDEF_STEREO_COUNT>
0

> <PUBCHEM_ISOTOPIC_ATOM_COUNT>
0

> <PUBCHEM_COMPONENT_COUNT>
1

> <PUBCHEM_CACTVS_TAUTO_COUNT>
-1

> <PUBCHEM_COORDINATE_TYPE>
1
5
255

> <PUBCHEM_BONDANNOTATIONS>
106  110  8
106  111  8
110  113  8
111  114  8
113  115  8
114  115  8
49  22  6
47  23  5
59  26  5
63  27  5
28  67  8
28  69  8
70  29  6
76  30  5
79  32  6
85  33  5
34  102  8
34  86  8
93  35  6
36  102  8
36  94  8
101  39  5
109  40  5
41  46  5
62  66  8
62  67  8
66  69  8
66  72  8
69  75  8
72  78  8
75  81  8
78  81  8
82  90  8
82  91  8
86  94  8
90  96  8
91  97  8
96  99  8
97  99  8

$$$$
