197020
  -OEChem-05242006102D

 31 32  0     1  0  0  0  0  0999 V2000
    5.0298   -1.6907    0.0000 O   0  0  0  0  0  0  0  0  0  0  0  0
    2.4608   -1.3816    0.0000 O   0  0  0  0  0  0  0  0  0  0  0  0
    3.1330   -3.4507    0.0000 O   0  0  0  0  0  0  0  0  0  0  0  0
    6.3031   -3.3462    0.0000 O   0  0  0  0  0  0  0  0  0  0  0  0
    5.9529   -0.1029    0.0000 O   0  0  0  0  0  0  0  0  0  0  0  0
    3.3548    3.3971    0.0000 O   0  0  0  0  0  0  0  0  0  0  0  0
    4.2208   -0.1029    0.0000 N   0  0  0  0  0  0  0  0  0  0  0  0
    5.0868    1.3971    0.0000 N   0  0  0  0  0  0  0  0  0  0  0  0
    4.2208    2.8971    0.0000 N   0  0  0  0  0  0  0  0  0  0  0  0
    3.4118   -1.6907    0.0000 C   0  0  2  0  0  0  0  0  0  0  0  0
    3.7208   -2.6417    0.0000 C   0  0  1  0  0  0  0  0  0  0  0  0
    4.2208   -1.1029    0.0000 C   0  0  1  0  0  0  0  0  0  0  0  0
    4.7208   -2.6417    0.0000 C   0  0  1  0  0  0  0  0  0  0  0  0
    5.3086   -3.4507    0.0000 C   0  0  0  0  0  0  0  0  0  0  0  0
    3.3548    0.3971    0.0000 C   0  0  0  0  0  0  0  0  0  0  0  0
    5.0868    0.3971    0.0000 C   0  0  0  0  0  0  0  0  0  0  0  0
    3.3548    1.3971    0.0000 C   0  0  0  0  0  0  0  0  0  0  0  0
    4.2208    1.8971    0.0000 C   0  0  0  0  0  0  0  0  0  0  0  0
    3.3148   -1.0783    0.0000 H   0  0  0  0  0  0  0  0  0  0  0  0
    3.1085   -2.5447    0.0000 H   0  0  0  0  0  0  0  0  0  0  0  0
    3.6684   -0.8214    0.0000 H   0  0  0  0  0  0  0  0  0  0  0  0
    5.3332   -2.5447    0.0000 H   0  0  0  0  0  0  0  0  0  0  0  0
    4.7514   -3.7225    0.0000 H   0  0  0  0  0  0  0  0  0  0  0  0
    5.4795   -4.0467    0.0000 H   0  0  0  0  0  0  0  0  0  0  0  0
    2.0000   -1.7965    0.0000 H   0  0  0  0  0  0  0  0  0  0  0  0
    3.3852   -4.0171    0.0000 H   0  0  0  0  0  0  0  0  0  0  0  0
    2.8179    0.0871    0.0000 H   0  0  0  0  0  0  0  0  0  0  0  0
    6.6676   -3.8478    0.0000 H   0  0  0  0  0  0  0  0  0  0  0  0
    2.8179    1.7071    0.0000 H   0  0  0  0  0  0  0  0  0  0  0  0
    4.7578    3.2071    0.0000 H   0  0  0  0  0  0  0  0  0  0  0  0
    3.3548    4.0171    0.0000 H   0  0  0  0  0  0  0  0  0  0  0  0
  1 12  1  0  0  0  0
  1 13  1  0  0  0  0
 10  2  1  1  0  0  0
  2 25  1  0  0  0  0
 11  3  1  1  0  0  0
  3 26  1  0  0  0  0
  4 14  1  0  0  0  0
  4 28  1  0  0  0  0
  5 16  2  0  0  0  0
  6  9  1  0  0  0  0
  6 31  1  0  0  0  0
 12  7  1  6  0  0  0
  7 15  1  0  0  0  0
  7 16  1  0  0  0  0
  8 16  1  0  0  0  0
  8 18  2  0  0  0  0
  9 18  1  0  0  0  0
  9 30  1  0  0  0  0
 10 11  1  0  0  0  0
 10 12  1  0  0  0  0
 10 19  1  0  0  0  0
 11 13  1  0  0  0  0
 11 20  1  0  0  0  0
 12 21  1  0  0  0  0
 13 14  1  6  0  0  0
 13 22  1  0  0  0  0
 14 23  1  0  0  0  0
 14 24  1  0  0  0  0
 15 17  2  0  0  0  0
 15 27  1  0  0  0  0
 17 18  1  0  0  0  0
 17 29  1  0  0  0  0
M  END
> <PUBCHEM_COMPOUND_CID>
197020

> <PUBCHEM_COMPOUND_CANONICALIZED>
1

> <PUBCHEM_CACTVS_COMPLEXITY>
398

> <PUBCHEM_CACTVS_HBOND_ACCEPTOR>
6

> <PUBCHEM_CACTVS_HBOND_DONOR>
5

> <PUBCHEM_CACTVS_ROTATABLE_BOND>
3

> <PUBCHEM_CACTVS_SUBSKEYS>
AAADccBzOAAAAAAAAAAAAAAAAAAAASAAAAAgAAAAAAAAAAAAAAAAHgAUCAAACBThgAYBAANQBgCoACJmdACAAAEAAgAoAAAYABCDEAIAgAAOQAAHFgITAADwMAIAAAAAAAAAAAAAAAAAAAAAAAAAAAAAAA==

> <PUBCHEM_IUPAC_OPENEYE_NAME>
1-[(2R,3R,4S,5R)-3,4-dihydroxy-5-(hydroxymethyl)tetrahydrofuran-2-yl]-4-(hydroxyamino)pyrimidin-2-one

> <PUBCHEM_IUPAC_CAS_NAME>
1-[(2R,3R,4S,5R)-3,4-dihydroxy-5-(hydroxymethyl)-2-oxolanyl]-4-(hydroxyamino)-2-pyrimidinone

> <PUBCHEM_IUPAC_NAME_MARKUP>
1-[(2<I>R</I>,3<I>R</I>,4<I>S</I>,5<I>R</I>)-3,4-dihydroxy-5-(hydroxymethyl)oxolan-2-yl]-4-(hydroxyamino)pyrimidin-2-one

> <PUBCHEM_IUPAC_NAME>
1-[(2R,3R,4S,5R)-3,4-dihydroxy-5-(hydroxymethyl)oxolan-2-yl]-4-(hydroxyamino)pyrimidin-2-one

> <PUBCHEM_IUPAC_SYSTEMATIC_NAME>
1-[(2R,3R,4S,5R)-5-(hydroxymethyl)-3,4-bis(oxidanyl)oxolan-2-yl]-4-(oxidanylamino)pyrimidin-2-one

> <PUBCHEM_IUPAC_TRADITIONAL_NAME>
1-[(2R,3R,4S,5R)-3,4-dihydroxy-5-methylol-tetrahydrofuran-2-yl]-4-(hydroxyamino)pyrimidin-2-one

> <PUBCHEM_IUPAC_INCHI>
InChI=1S/C9H13N3O6/c13-3-4-6(14)7(15)8(18-4)12-2-1-5(11-17)10-9(12)16/h1-2,4,6-8,13-15,17H,3H2,(H,10,11,16)/t4-,6-,7-,8-/m1/s1

> <PUBCHEM_IUPAC_INCHIKEY>
XCUAIINAJCDIPM-XVFCMESISA-N

> <PUBCHEM_XLOGP3>
-2.2

> <PUBCHEM_EXACT_MASS>
259.080435

> <PUBCHEM_MOLECULAR_FORMULA>
C9H13N3O6

> <PUBCHEM_MOLECULAR_WEIGHT>
259.22

> <PUBCHEM_OPENEYE_CAN_SMILES>
C1=CN(C(=O)N=C1NO)C2C(C(C(O2)CO)O)O

> <PUBCHEM_OPENEYE_ISO_SMILES>
C1=CN(C(=O)N=C1NO)[C@H]2[C@@H]([C@@H]([C@H](O2)CO)O)O

> <PUBCHEM_CACTVS_TPSA>
135

> <PUBCHEM_MONOISOTOPIC_WEIGHT>
259.080435

> <PUBCHEM_TOTAL_CHARGE>
0

> <PUBCHEM_HEAVY_ATOM_COUNT>
18

> <PUBCHEM_ATOM_DEF_STEREO_COUNT>
4

> <PUBCHEM_ATOM_UDEF_STEREO_COUNT>
0

> <PUBCHEM_BOND_DEF_STEREO_COUNT>
0

> <PUBCHEM_BOND_UDEF_STEREO_COUNT>
0

> <PUBCHEM_ISOTOPIC_ATOM_COUNT>
0

> <PUBCHEM_COMPONENT_COUNT>
1

> <PUBCHEM_CACTVS_TAUTO_COUNT>
-1

> <PUBCHEM_COORDINATE_TYPE>
1
5
255

> <PUBCHEM_BONDANNOTATIONS>
13  14  6
15  17  8
17  18  8
10  2  5
11  3  5
12  7  6
7  15  8
7  16  8
8  16  8
8  18  8

$$$$
