23663126
  -OEChem-05242006132D

 44 45  0     1  0  0  0  0  0999 V2000
   10.6404    1.0016    0.0000 S   0  0  0  0  0  0  0  0  0  0  0  0
   10.5893   -3.2617    0.0000 Na  0  3  0  0  0  0  0  0  0  0  0  0
    7.9754   -1.0201    0.0000 O   0  0  0  0  0  0  0  0  0  0  0  0
   10.2803   -2.3106    0.0000 O   0  5  0  0  0  0  0  0  0  0  0  0
   11.9276   -1.7754    0.0000 O   0  0  0  0  0  0  0  0  0  0  0  0
    6.7482    0.1831    0.0000 O   0  0  0  0  0  0  0  0  0  0  0  0
    2.4375    0.8297    0.0000 O   0  0  0  0  0  0  0  0  0  0  0  0
    9.6894   -0.3074    0.0000 N   0  0  0  0  0  0  0  0  0  0  0  0
    7.9754    1.4053    0.0000 N   0  0  0  0  0  0  0  0  0  0  0  0
    6.5641    2.8224    0.0000 N   0  0  0  0  0  0  0  0  0  0  0  0
    9.6894    0.6926    0.0000 C   0  0  1  0  0  0  0  0  0  0  0  0
   11.2282    0.1926    0.0000 C   0  0  0  0  0  0  0  0  0  0  0  0
   10.6404   -0.6164    0.0000 C   0  0  2  0  0  0  0  0  0  0  0  0
    8.6811    0.6967    0.0000 C   0  0  1  0  0  0  0  0  0  0  0  0
    8.6811   -0.3116    0.0000 C   0  0  0  0  0  0  0  0  0  0  0  0
   12.0372    0.7804    0.0000 C   0  0  0  0  0  0  0  0  0  0  0  0
   12.0372   -0.3952    0.0000 C   0  0  0  0  0  0  0  0  0  0  0  0
   10.9494   -1.5675    0.0000 C   0  0  0  0  0  0  0  0  0  0  0  0
    7.0090    1.1484    0.0000 C   0  0  0  0  0  0  0  0  0  0  0  0
    6.3033    1.8570    0.0000 C   0  0  1  0  0  0  0  0  0  0  0  0
    5.3369    1.6002    0.0000 C   0  0  0  0  0  0  0  0  0  0  0  0
    5.0761    0.6348    0.0000 C   0  0  0  0  0  0  0  0  0  0  0  0
    4.6312    2.3087    0.0000 C   0  0  0  0  0  0  0  0  0  0  0  0
    4.1096    0.3779    0.0000 C   0  0  0  0  0  0  0  0  0  0  0  0
    3.6648    2.0519    0.0000 C   0  0  0  0  0  0  0  0  0  0  0  0
    3.4040    1.0865    0.0000 C   0  0  0  0  0  0  0  0  0  0  0  0
    9.5581    1.5324    0.0000 H   0  0  0  0  0  0  0  0  0  0  0  0
   10.2020   -1.0548    0.0000 H   0  0  0  0  0  0  0  0  0  0  0  0
    8.1080    0.4600    0.0000 H   0  0  0  0  0  0  0  0  0  0  0  0
   12.4017    0.2788    0.0000 H   0  0  0  0  0  0  0  0  0  0  0  0
   12.5388    1.1448    0.0000 H   0  0  0  0  0  0  0  0  0  0  0  0
   11.6728    1.2820    0.0000 H   0  0  0  0  0  0  0  0  0  0  0  0
   11.6728   -0.8968    0.0000 H   0  0  0  0  0  0  0  0  0  0  0  0
   12.5388   -0.7596    0.0000 H   0  0  0  0  0  0  0  0  0  0  0  0
   12.4017    0.1064    0.0000 H   0  0  0  0  0  0  0  0  0  0  0  0
    8.1371    2.0038    0.0000 H   0  0  0  0  0  0  0  0  0  0  0  0
    5.8658    2.2963    0.0000 H   0  0  0  0  0  0  0  0  0  0  0  0
    6.1266    3.2617    0.0000 H   0  0  0  0  0  0  0  0  0  0  0  0
    7.1633    2.9816    0.0000 H   0  0  0  0  0  0  0  0  0  0  0  0
    5.5136    0.1955    0.0000 H   0  0  0  0  0  0  0  0  0  0  0  0
    4.7929    2.9073    0.0000 H   0  0  0  0  0  0  0  0  0  0  0  0
    3.9479   -0.2206    0.0000 H   0  0  0  0  0  0  0  0  0  0  0  0
    3.2273    2.4912    0.0000 H   0  0  0  0  0  0  0  0  0  0  0  0
    2.0000    1.2690    0.0000 H   0  0  0  0  0  0  0  0  0  0  0  0
  1 11  1  0  0  0  0
  1 12  1  0  0  0  0
  3 15  2  0  0  0  0
  4 18  1  0  0  0  0
  5 18  2  0  0  0  0
  6 19  2  0  0  0  0
  7 26  1  0  0  0  0
  7 44  1  0  0  0  0
  8 11  1  0  0  0  0
  8 13  1  0  0  0  0
  8 15  1  0  0  0  0
 14  9  1  1  0  0  0
  9 19  1  0  0  0  0
  9 36  1  0  0  0  0
 20 10  1  1  0  0  0
 10 38  1  0  0  0  0
 10 39  1  0  0  0  0
 11 14  1  0  0  0  0
 11 27  1  6  0  0  0
 12 13  1  0  0  0  0
 12 16  1  0  0  0  0
 12 17  1  0  0  0  0
 13 18  1  6  0  0  0
 13 28  1  0  0  0  0
 14 15  1  0  0  0  0
 14 29  1  0  0  0  0
 16 30  1  0  0  0  0
 16 31  1  0  0  0  0
 16 32  1  0  0  0  0
 17 33  1  0  0  0  0
 17 34  1  0  0  0  0
 17 35  1  0  0  0  0
 19 20  1  0  0  0  0
 20 21  1  0  0  0  0
 20 37  1  0  0  0  0
 21 22  2  0  0  0  0
 21 23  1  0  0  0  0
 22 24  1  0  0  0  0
 22 40  1  0  0  0  0
 23 25  2  0  0  0  0
 23 41  1  0  0  0  0
 24 26  2  0  0  0  0
 24 42  1  0  0  0  0
 25 26  1  0  0  0  0
 25 43  1  0  0  0  0
M  CHG  2   2   1   4  -1
M  END
> <PUBCHEM_COMPOUND_CID>
23663126

> <PUBCHEM_COMPOUND_CANONICALIZED>
1

> <PUBCHEM_CACTVS_COMPLEXITY>
596

> <PUBCHEM_CACTVS_HBOND_ACCEPTOR>
7

> <PUBCHEM_CACTVS_HBOND_DONOR>
3

> <PUBCHEM_CACTVS_ROTATABLE_BOND>
4

> <PUBCHEM_CACTVS_SUBSKEYS>
AAADceB7OCBAAAAAAAAAAAAAAABYAWAAAAAwAAAABYAAAAABAAAAHgQQCAAADCzF2ASyDoPAAgiIAiHSGACCAABgIBAIiIGODIgKZjqilTOUcABk1hG4mAeY2IGOIAAAAAAAAABAAAAAAAAAAAAAAAAAAA==

> <PUBCHEM_IUPAC_OPENEYE_NAME>
sodium;(2S,5R,6R)-6-[[(2R)-2-amino-2-(4-hydroxyphenyl)acetyl]amino]-3,3-dimethyl-7-oxo-4-thia-1-azabicyclo[3.2.0]heptane-2-carboxylate

> <PUBCHEM_IUPAC_CAS_NAME>
sodium;(2S,5R,6R)-6-[[(2R)-2-amino-2-(4-hydroxyphenyl)-1-oxoethyl]amino]-3,3-dimethyl-7-oxo-4-thia-1-azabicyclo[3.2.0]heptane-2-carboxylate

> <PUBCHEM_IUPAC_NAME_MARKUP>
sodium;(2<I>S</I>,5<I>R</I>,6<I>R</I>)-6-[[(2<I>R</I>)-2-amino-2-(4-hydroxyphenyl)acetyl]amino]-3,3-dimethyl-7-oxo-4-thia-1-azabicyclo[3.2.0]heptane-2-carboxylate

> <PUBCHEM_IUPAC_NAME>
sodium;(2S,5R,6R)-6-[[(2R)-2-amino-2-(4-hydroxyphenyl)acetyl]amino]-3,3-dimethyl-7-oxo-4-thia-1-azabicyclo[3.2.0]heptane-2-carboxylate

> <PUBCHEM_IUPAC_SYSTEMATIC_NAME>
sodium;(2S,5R,6R)-6-[[(2R)-2-azanyl-2-(4-hydroxyphenyl)ethanoyl]amino]-3,3-dimethyl-7-oxidanylidene-4-thia-1-azabicyclo[3.2.0]heptane-2-carboxylate

> <PUBCHEM_IUPAC_TRADITIONAL_NAME>
sodium;(2S,5R,6R)-6-[[(2R)-2-amino-2-(4-hydroxyphenyl)acetyl]amino]-7-keto-3,3-dimethyl-4-thia-1-azabicyclo[3.2.0]heptane-2-carboxylate

> <PUBCHEM_IUPAC_INCHI>
InChI=1S/C16H19N3O5S.Na/c1-16(2)11(15(23)24)19-13(22)10(14(19)25-16)18-12(21)9(17)7-3-5-8(20)6-4-7;/h3-6,9-11,14,20H,17H2,1-2H3,(H,18,21)(H,23,24);/q;+1/p-1/t9-,10-,11+,14-;/m1./s1

> <PUBCHEM_IUPAC_INCHIKEY>
BYHDFCISJXIVBV-YWUHCJSESA-M

> <PUBCHEM_EXACT_MASS>
387.086486

> <PUBCHEM_MOLECULAR_FORMULA>
C16H18N3NaO5S

> <PUBCHEM_MOLECULAR_WEIGHT>
387.4

> <PUBCHEM_OPENEYE_CAN_SMILES>
CC1(C(N2C(S1)C(C2=O)NC(=O)C(C3=CC=C(C=C3)O)N)C(=O)[O-])C.[Na+]

> <PUBCHEM_OPENEYE_ISO_SMILES>
CC1([C@@H](N2[C@H](S1)[C@@H](C2=O)NC(=O)[C@@H](C3=CC=C(C=C3)O)N)C(=O)[O-])C.[Na+]

> <PUBCHEM_CACTVS_TPSA>
161

> <PUBCHEM_MONOISOTOPIC_WEIGHT>
387.086486

> <PUBCHEM_TOTAL_CHARGE>
0

> <PUBCHEM_HEAVY_ATOM_COUNT>
26

> <PUBCHEM_ATOM_DEF_STEREO_COUNT>
4

> <PUBCHEM_ATOM_UDEF_STEREO_COUNT>
0

> <PUBCHEM_BOND_DEF_STEREO_COUNT>
0

> <PUBCHEM_BOND_UDEF_STEREO_COUNT>
0

> <PUBCHEM_ISOTOPIC_ATOM_COUNT>
0

> <PUBCHEM_COMPONENT_COUNT>
2

> <PUBCHEM_CACTVS_TAUTO_COUNT>
-1

> <PUBCHEM_NONSTANDARDBOND>
2  4  7

> <PUBCHEM_COORDINATE_TYPE>
1
5
255

> <PUBCHEM_BONDANNOTATIONS>
20  10  5
11  27  6
13  18  6
21  22  8
21  23  8
22  24  8
23  25  8
24  26  8
25  26  8
14  9  5

$$$$
