23830
  -OEChem-05242006112D

 33 33  0     0  0  0  0  0  0999 V2000
    5.4860    2.6160    0.0000 S   0  0  0  0  0  0  0  0  0  0  0  0
    2.6200   -3.6160    0.0000 O   0  0  0  0  0  0  0  0  0  0  0  0
    5.4860    3.6160    0.0000 O   0  5  0  0  0  0  0  0  0  0  0  0
    6.4860    2.6160    0.0000 O   0  0  0  0  0  0  0  0  0  0  0  0
    4.4860    2.6160    0.0000 O   0  0  0  0  0  0  0  0  0  0  0  0
    4.6200   -1.8840    0.0000 N   0  3  0  0  0  0  0  0  0  0  0  0
    4.6200    0.1160    0.0000 N   0  0  0  0  0  0  0  0  0  0  0  0
    3.7540   -1.3840    0.0000 C   0  0  0  0  0  0  0  0  0  0  0  0
    5.4860   -1.3840    0.0000 C   0  0  0  0  0  0  0  0  0  0  0  0
    3.7540   -0.3840    0.0000 C   0  0  0  0  0  0  0  0  0  0  0  0
    5.4860   -0.3840    0.0000 C   0  0  0  0  0  0  0  0  0  0  0  0
    4.1200   -2.7500    0.0000 C   0  0  0  0  0  0  0  0  0  0  0  0
    4.6200    1.1160    0.0000 C   0  0  0  0  0  0  0  0  0  0  0  0
    3.1200   -2.7500    0.0000 C   0  0  0  0  0  0  0  0  0  0  0  0
    5.4860    1.6160    0.0000 C   0  0  0  0  0  0  0  0  0  0  0  0
    4.9300   -2.4209    0.0000 H   0  0  0  0  0  0  0  0  0  0  0  0
    3.1434   -1.2763    0.0000 H   0  0  0  0  0  0  0  0  0  0  0  0
    3.5419   -1.9666    0.0000 H   0  0  0  0  0  0  0  0  0  0  0  0
    5.6981   -1.9666    0.0000 H   0  0  0  0  0  0  0  0  0  0  0  0
    6.0966   -1.2763    0.0000 H   0  0  0  0  0  0  0  0  0  0  0  0
    3.5419    0.1986    0.0000 H   0  0  0  0  0  0  0  0  0  0  0  0
    3.1434   -0.4916    0.0000 H   0  0  0  0  0  0  0  0  0  0  0  0
    6.0966   -0.4916    0.0000 H   0  0  0  0  0  0  0  0  0  0  0  0
    5.6981    0.1986    0.0000 H   0  0  0  0  0  0  0  0  0  0  0  0
    4.0123   -3.3606    0.0000 H   0  0  0  0  0  0  0  0  0  0  0  0
    4.7026   -2.9620    0.0000 H   0  0  0  0  0  0  0  0  0  0  0  0
    4.4079    1.6986    0.0000 H   0  0  0  0  0  0  0  0  0  0  0  0
    4.0094    1.0084    0.0000 H   0  0  0  0  0  0  0  0  0  0  0  0
    3.2277   -2.1394    0.0000 H   0  0  0  0  0  0  0  0  0  0  0  0
    2.5374   -2.5380    0.0000 H   0  0  0  0  0  0  0  0  0  0  0  0
    5.6981    1.0334    0.0000 H   0  0  0  0  0  0  0  0  0  0  0  0
    6.0966    1.7237    0.0000 H   0  0  0  0  0  0  0  0  0  0  0  0
    2.0000   -3.6160    0.0000 H   0  0  0  0  0  0  0  0  0  0  0  0
  1  3  1  0  0  0  0
  1  4  2  0  0  0  0
  1  5  2  0  0  0  0
  1 15  1  0  0  0  0
  2 14  1  0  0  0  0
  2 33  1  0  0  0  0
  6  8  1  0  0  0  0
  6  9  1  0  0  0  0
  6 12  1  0  0  0  0
  6 16  1  0  0  0  0
  7 10  1  0  0  0  0
  7 11  1  0  0  0  0
  7 13  1  0  0  0  0
  8 10  1  0  0  0  0
  8 17  1  0  0  0  0
  8 18  1  0  0  0  0
  9 11  1  0  0  0  0
  9 19  1  0  0  0  0
  9 20  1  0  0  0  0
 10 21  1  0  0  0  0
 10 22  1  0  0  0  0
 11 23  1  0  0  0  0
 11 24  1  0  0  0  0
 12 14  1  0  0  0  0
 12 25  1  0  0  0  0
 12 26  1  0  0  0  0
 13 15  1  0  0  0  0
 13 27  1  0  0  0  0
 13 28  1  0  0  0  0
 14 29  1  0  0  0  0
 14 30  1  0  0  0  0
 15 31  1  0  0  0  0
 15 32  1  0  0  0  0
M  CHG  2   3  -1   6   1
M  END
> <PUBCHEM_COMPOUND_CID>
23830

> <PUBCHEM_COMPOUND_CANONICALIZED>
1

> <PUBCHEM_CACTVS_COMPLEXITY>
254

> <PUBCHEM_CACTVS_HBOND_ACCEPTOR>
5

> <PUBCHEM_CACTVS_HBOND_DONOR>
2

> <PUBCHEM_CACTVS_ROTATABLE_BOND>
4

> <PUBCHEM_CACTVS_SUBSKEYS>
AAADceBzOABAAAAAAAAAAAAAAAAAAAAAAAAsAAAAAAAAAAAAAAAAHgQQCAAAAADlwAaAAAPAAgIAAAAAAHBAAAAAAAAAAIAIAAACUAAAAAAQAAAAEACQAAAAAAAAAAAAAAAAAAAAAAAAAAAAAAAAAAAAAA==

> <PUBCHEM_IUPAC_OPENEYE_NAME>
2-[4-(2-hydroxyethyl)piperazin-4-ium-1-yl]ethanesulfonate

> <PUBCHEM_IUPAC_CAS_NAME>
2-[4-(2-hydroxyethyl)-1-piperazin-4-iumyl]ethanesulfonate

> <PUBCHEM_IUPAC_NAME_MARKUP>
2-[4-(2-hydroxyethyl)piperazin-4-ium-1-yl]ethanesulfonate

> <PUBCHEM_IUPAC_NAME>
2-[4-(2-hydroxyethyl)piperazin-4-ium-1-yl]ethanesulfonate

> <PUBCHEM_IUPAC_SYSTEMATIC_NAME>
2-[4-(2-hydroxyethyl)piperazin-4-ium-1-yl]ethanesulfonate

> <PUBCHEM_IUPAC_TRADITIONAL_NAME>
2-[4-(2-hydroxyethyl)piperazin-4-ium-1-yl]ethanesulfonate

> <PUBCHEM_IUPAC_INCHI>
InChI=1S/C8H18N2O4S/c11-7-5-9-1-3-10(4-2-9)6-8-15(12,13)14/h11H,1-8H2,(H,12,13,14)

> <PUBCHEM_IUPAC_INCHIKEY>
JKMHFZQWWAIEOD-UHFFFAOYSA-N

> <PUBCHEM_XLOGP3_AA>
-4.1

> <PUBCHEM_EXACT_MASS>
238.098728

> <PUBCHEM_MOLECULAR_FORMULA>
C8H18N2O4S

> <PUBCHEM_MOLECULAR_WEIGHT>
238.31

> <PUBCHEM_OPENEYE_CAN_SMILES>
C1CN(CC[NH+]1CCO)CCS(=O)(=O)[O-]

> <PUBCHEM_OPENEYE_ISO_SMILES>
C1CN(CC[NH+]1CCO)CCS(=O)(=O)[O-]

> <PUBCHEM_CACTVS_TPSA>
93.5

> <PUBCHEM_MONOISOTOPIC_WEIGHT>
238.098728

> <PUBCHEM_TOTAL_CHARGE>
0

> <PUBCHEM_HEAVY_ATOM_COUNT>
15

> <PUBCHEM_ATOM_DEF_STEREO_COUNT>
0

> <PUBCHEM_ATOM_UDEF_STEREO_COUNT>
0

> <PUBCHEM_BOND_DEF_STEREO_COUNT>
0

> <PUBCHEM_BOND_UDEF_STEREO_COUNT>
0

> <PUBCHEM_ISOTOPIC_ATOM_COUNT>
0

> <PUBCHEM_COMPONENT_COUNT>
1

> <PUBCHEM_CACTVS_TAUTO_COUNT>
-1

> <PUBCHEM_COORDINATE_TYPE>
1
5
255

$$$$
