25151504
  -OEChem-05242006102D

107111  0     1  0  0  0  0  0999 V2000
    9.6448    3.6239    0.0000 S   0  0  0  0  0  0  0  0  0  0  0  0
   11.5738   -1.6192    0.0000 S   0  0  0  0  0  0  0  0  0  0  0  0
    2.0000    2.7875    0.0000 O   0  0  0  0  0  0  0  0  0  0  0  0
    6.3301   -1.7125    0.0000 O   0  0  0  0  0  0  0  0  0  0  0  0
    8.9282   -1.2125    0.0000 O   0  0  0  0  0  0  0  0  0  0  0  0
    5.4641    1.7875    0.0000 O   0  0  0  0  0  0  0  0  0  0  0  0
    7.1962   -1.2125    0.0000 O   0  0  0  0  0  0  0  0  0  0  0  0
    4.5981   -1.7125    0.0000 N   0  0  0  0  0  0  0  0  0  0  0  0
    3.7320    1.7875    0.0000 N   0  0  0  0  0  0  0  0  0  0  0  0
    8.0622   -2.7125    0.0000 N   0  0  0  0  0  0  0  0  0  0  0  0
    6.3301    0.2875    0.0000 N   0  0  0  0  0  0  0  0  0  0  0  0
    7.1962    1.7875    0.0000 N   0  0  0  0  0  0  0  0  0  0  0  0
    8.1667    4.2820    0.0000 N   0  0  0  0  0  0  0  0  0  0  0  0
   11.7429   -0.0101    0.0000 N   0  0  0  0  0  0  0  0  0  0  0  0
    4.5981   -2.7125    0.0000 C   0  0  2  0  0  0  0  0  0  0  0  0
    5.4641   -3.2125    0.0000 C   0  0  0  0  0  0  0  0  0  0  0  0
    6.3301   -2.7125    0.0000 C   0  0  0  0  0  0  0  0  0  0  0  0
    7.1962   -3.2125    0.0000 C   0  0  2  0  0  0  0  0  0  0  0  0
    5.4641   -0.2125    0.0000 C   0  0  1  0  0  0  0  0  0  0  0  0
    3.7320   -3.2125    0.0000 C   0  0  0  0  0  0  0  0  0  0  0  0
    4.5981    0.2875    0.0000 C   0  0  0  0  0  0  0  0  0  0  0  0
    4.5981    1.2875    0.0000 C   0  0  0  0  0  0  0  0  0  0  0  0
    7.1962   -4.2125    0.0000 C   0  0  0  0  0  0  0  0  0  0  0  0
    5.4641   -1.2125    0.0000 C   0  0  0  0  0  0  0  0  0  0  0  0
    2.8660    1.2875    0.0000 C   0  0  0  0  0  0  0  0  0  0  0  0
    3.7320    2.7875    0.0000 C   0  0  0  0  0  0  0  0  0  0  0  0
    3.7320   -4.2125    0.0000 C   0  0  0  0  0  0  0  0  0  0  0  0
    2.0000    1.7875    0.0000 C   0  0  0  0  0  0  0  0  0  0  0  0
    2.8660    3.2875    0.0000 C   0  0  0  0  0  0  0  0  0  0  0  0
    8.0622   -4.7125    0.0000 C   0  0  0  0  0  0  0  0  0  0  0  0
    2.8660   -4.7125    0.0000 C   0  0  0  0  0  0  0  0  0  0  0  0
    4.5981   -4.7125    0.0000 C   0  0  0  0  0  0  0  0  0  0  0  0
    6.3301    1.2875    0.0000 C   0  0  0  0  0  0  0  0  0  0  0  0
    8.0622   -1.7125    0.0000 C   0  0  0  0  0  0  0  0  0  0  0  0
    8.0622   -5.7125    0.0000 C   0  0  0  0  0  0  0  0  0  0  0  0
    8.9282   -4.2125    0.0000 C   0  0  0  0  0  0  0  0  0  0  0  0
    2.8660   -5.7125    0.0000 C   0  0  0  0  0  0  0  0  0  0  0  0
    4.5981   -5.7125    0.0000 C   0  0  0  0  0  0  0  0  0  0  0  0
    3.7320   -6.2125    0.0000 C   0  0  0  0  0  0  0  0  0  0  0  0
    8.9282   -6.2125    0.0000 C   0  0  0  0  0  0  0  0  0  0  0  0
    9.7942   -4.7125    0.0000 C   0  0  0  0  0  0  0  0  0  0  0  0
    7.1962    2.7875    0.0000 C   0  0  0  0  0  0  0  0  0  0  0  0
    9.7942   -5.7125    0.0000 C   0  0  0  0  0  0  0  0  0  0  0  0
    8.0622    1.2875    0.0000 C   0  0  0  0  0  0  0  0  0  0  0  0
    8.0622    3.2875    0.0000 C   0  0  0  0  0  0  0  0  0  0  0  0
    9.7942   -1.7125    0.0000 C   0  0  0  0  0  0  0  0  0  0  0  0
    8.9757    2.8808    0.0000 C   0  0  0  0  0  0  0  0  0  0  0  0
    9.1448    4.4899    0.0000 C   0  0  0  0  0  0  0  0  0  0  0  0
    9.5516    5.4035    0.0000 C   0  0  0  0  0  0  0  0  0  0  0  0
   10.6603   -1.2125    0.0000 C   0  0  0  0  0  0  0  0  0  0  0  0
   10.5461    5.5080    0.0000 C   0  0  0  0  0  0  0  0  0  0  0  0
    8.9638    6.2125    0.0000 C   0  0  0  0  0  0  0  0  0  0  0  0
   10.7648   -0.2180    0.0000 C   0  0  0  0  0  0  0  0  0  0  0  0
   12.2429   -0.8761    0.0000 C   0  0  0  0  0  0  0  0  0  0  0  0
    5.1350   -2.4025    0.0000 H   0  0  0  0  0  0  0  0  0  0  0  0
    5.0656   -3.6874    0.0000 H   0  0  0  0  0  0  0  0  0  0  0  0
    5.8626   -3.6874    0.0000 H   0  0  0  0  0  0  0  0  0  0  0  0
    6.7287   -2.2376    0.0000 H   0  0  0  0  0  0  0  0  0  0  0  0
    5.9316   -2.2376    0.0000 H   0  0  0  0  0  0  0  0  0  0  0  0
    7.7331   -3.5225    0.0000 H   0  0  0  0  0  0  0  0  0  0  0  0
    5.4641    0.4075    0.0000 H   0  0  0  0  0  0  0  0  0  0  0  0
    3.5200   -2.6299    0.0000 H   0  0  0  0  0  0  0  0  0  0  0  0
    3.1215   -3.3202    0.0000 H   0  0  0  0  0  0  0  0  0  0  0  0
    3.9875    0.3952    0.0000 H   0  0  0  0  0  0  0  0  0  0  0  0
    4.3860   -0.2951    0.0000 H   0  0  0  0  0  0  0  0  0  0  0  0
    5.2087    1.1798    0.0000 H   0  0  0  0  0  0  0  0  0  0  0  0
    4.8101    1.8701    0.0000 H   0  0  0  0  0  0  0  0  0  0  0  0
    4.0611   -1.4025    0.0000 H   0  0  0  0  0  0  0  0  0  0  0  0
    6.5856   -4.1048    0.0000 H   0  0  0  0  0  0  0  0  0  0  0  0
    6.9841   -4.7951    0.0000 H   0  0  0  0  0  0  0  0  0  0  0  0
    2.4675    0.8126    0.0000 H   0  0  0  0  0  0  0  0  0  0  0  0
    3.2646    0.8126    0.0000 H   0  0  0  0  0  0  0  0  0  0  0  0
    4.3426    2.6798    0.0000 H   0  0  0  0  0  0  0  0  0  0  0  0
    3.9441    3.3701    0.0000 H   0  0  0  0  0  0  0  0  0  0  0  0
    8.5991   -3.0225    0.0000 H   0  0  0  0  0  0  0  0  0  0  0  0
    1.3894    1.8952    0.0000 H   0  0  0  0  0  0  0  0  0  0  0  0
    1.7880    1.2049    0.0000 H   0  0  0  0  0  0  0  0  0  0  0  0
    3.2646    3.7624    0.0000 H   0  0  0  0  0  0  0  0  0  0  0  0
    2.4675    3.7624    0.0000 H   0  0  0  0  0  0  0  0  0  0  0  0
    6.8671   -0.0225    0.0000 H   0  0  0  0  0  0  0  0  0  0  0  0
    2.3291   -4.4025    0.0000 H   0  0  0  0  0  0  0  0  0  0  0  0
    5.1350   -4.4025    0.0000 H   0  0  0  0  0  0  0  0  0  0  0  0
    7.5252   -6.0225    0.0000 H   0  0  0  0  0  0  0  0  0  0  0  0
    8.9282   -3.5925    0.0000 H   0  0  0  0  0  0  0  0  0  0  0  0
    2.3291   -6.0225    0.0000 H   0  0  0  0  0  0  0  0  0  0  0  0
    5.1350   -6.0225    0.0000 H   0  0  0  0  0  0  0  0  0  0  0  0
    3.7320   -6.8325    0.0000 H   0  0  0  0  0  0  0  0  0  0  0  0
    6.9841    3.3701    0.0000 H   0  0  0  0  0  0  0  0  0  0  0  0
    6.5856    2.6798    0.0000 H   0  0  0  0  0  0  0  0  0  0  0  0
    8.9282   -6.8325    0.0000 H   0  0  0  0  0  0  0  0  0  0  0  0
   10.3312   -4.4025    0.0000 H   0  0  0  0  0  0  0  0  0  0  0  0
   10.3312   -6.0225    0.0000 H   0  0  0  0  0  0  0  0  0  0  0  0
    7.7522    0.7506    0.0000 H   0  0  0  0  0  0  0  0  0  0  0  0
    8.5991    0.9775    0.0000 H   0  0  0  0  0  0  0  0  0  0  0  0
    8.3722    1.8244    0.0000 H   0  0  0  0  0  0  0  0  0  0  0  0
    9.3957   -2.1874    0.0000 H   0  0  0  0  0  0  0  0  0  0  0  0
   10.1928   -2.1874    0.0000 H   0  0  0  0  0  0  0  0  0  0  0  0
    9.1046    2.2743    0.0000 H   0  0  0  0  0  0  0  0  0  0  0  0
    9.9160    4.9019    0.0000 H   0  0  0  0  0  0  0  0  0  0  0  0
   10.6109    4.8914    0.0000 H   0  0  0  0  0  0  0  0  0  0  0  0
   11.1627    5.5728    0.0000 H   0  0  0  0  0  0  0  0  0  0  0  0
   10.4813    6.1246    0.0000 H   0  0  0  0  0  0  0  0  0  0  0  0
    9.4654    6.5769    0.0000 H   0  0  0  0  0  0  0  0  0  0  0  0
    8.5994    6.7141    0.0000 H   0  0  0  0  0  0  0  0  0  0  0  0
    8.4622    5.8481    0.0000 H   0  0  0  0  0  0  0  0  0  0  0  0
   10.3040    0.1969    0.0000 H   0  0  0  0  0  0  0  0  0  0  0  0
   12.8595   -0.9409    0.0000 H   0  0  0  0  0  0  0  0  0  0  0  0
  1 47  1  0  0  0  0
  1 48  1  0  0  0  0
  2 50  1  0  0  0  0
  2 54  1  0  0  0  0
  3 28  1  0  0  0  0
  3 29  1  0  0  0  0
  4 24  2  0  0  0  0
  5 34  1  0  0  0  0
  5 46  1  0  0  0  0
  6 33  2  0  0  0  0
  7 34  2  0  0  0  0
 15  8  1  6  0  0  0
  8 24  1  0  0  0  0
  8 68  1  0  0  0  0
  9 22  1  0  0  0  0
  9 25  1  0  0  0  0
  9 26  1  0  0  0  0
 18 10  1  1  0  0  0
 10 34  1  0  0  0  0
 10 75  1  0  0  0  0
 19 11  1  6  0  0  0
 11 33  1  0  0  0  0
 11 80  1  0  0  0  0
 12 33  1  0  0  0  0
 12 42  1  0  0  0  0
 12 44  1  0  0  0  0
 13 45  1  0  0  0  0
 13 48  2  0  0  0  0
 14 53  1  0  0  0  0
 14 54  2  0  0  0  0
 15 16  1  0  0  0  0
 15 20  1  0  0  0  0
 15 55  1  0  0  0  0
 16 17  1  0  0  0  0
 16 56  1  0  0  0  0
 16 57  1  0  0  0  0
 17 18  1  0  0  0  0
 17 58  1  0  0  0  0
 17 59  1  0  0  0  0
 18 23  1  0  0  0  0
 18 60  1  0  0  0  0
 19 21  1  0  0  0  0
 19 24  1  0  0  0  0
 19 61  1  0  0  0  0
 20 27  1  0  0  0  0
 20 62  1  0  0  0  0
 20 63  1  0  0  0  0
 21 22  1  0  0  0  0
 21 64  1  0  0  0  0
 21 65  1  0  0  0  0
 22 66  1  0  0  0  0
 22 67  1  0  0  0  0
 23 30  1  0  0  0  0
 23 69  1  0  0  0  0
 23 70  1  0  0  0  0
 25 28  1  0  0  0  0
 25 71  1  0  0  0  0
 25 72  1  0  0  0  0
 26 29  1  0  0  0  0
 26 73  1  0  0  0  0
 26 74  1  0  0  0  0
 27 31  2  0  0  0  0
 27 32  1  0  0  0  0
 28 76  1  0  0  0  0
 28 77  1  0  0  0  0
 29 78  1  0  0  0  0
 29 79  1  0  0  0  0
 30 35  2  0  0  0  0
 30 36  1  0  0  0  0
 31 37  1  0  0  0  0
 31 81  1  0  0  0  0
 32 38  2  0  0  0  0
 32 82  1  0  0  0  0
 35 40  1  0  0  0  0
 35 83  1  0  0  0  0
 36 41  2  0  0  0  0
 36 84  1  0  0  0  0
 37 39  2  0  0  0  0
 37 85  1  0  0  0  0
 38 39  1  0  0  0  0
 38 86  1  0  0  0  0
 39 87  1  0  0  0  0
 40 43  2  0  0  0  0
 40 90  1  0  0  0  0
 41 43  1  0  0  0  0
 41 91  1  0  0  0  0
 42 45  1  0  0  0  0
 42 88  1  0  0  0  0
 42 89  1  0  0  0  0
 43 92  1  0  0  0  0
 44 93  1  0  0  0  0
 44 94  1  0  0  0  0
 44 95  1  0  0  0  0
 45 47  2  0  0  0  0
 46 50  1  0  0  0  0
 46 96  1  0  0  0  0
 46 97  1  0  0  0  0
 47 98  1  0  0  0  0
 48 49  1  0  0  0  0
 49 51  1  0  0  0  0
 49 52  1  0  0  0  0
 49 99  1  0  0  0  0
 50 53  2  0  0  0  0
 51100  1  0  0  0  0
 51101  1  0  0  0  0
 51102  1  0  0  0  0
 52103  1  0  0  0  0
 52104  1  0  0  0  0
 52105  1  0  0  0  0
 53106  1  0  0  0  0
 54107  1  0  0  0  0
M  END
> <PUBCHEM_COMPOUND_CID>
25151504

> <PUBCHEM_COMPOUND_CANONICALIZED>
1

> <PUBCHEM_CACTVS_COMPLEXITY>
1120

> <PUBCHEM_CACTVS_HBOND_ACCEPTOR>
10

> <PUBCHEM_CACTVS_HBOND_DONOR>
3

> <PUBCHEM_CACTVS_ROTATABLE_BOND>
20

> <PUBCHEM_CACTVS_SUBSKEYS>
AAADcfB/uABgAAAAAAAAAAAAAAAAAWLAAAA8YIAAAAAAAAAB9AAAHgQQAAAADSjl3ga/iZPIFAisAzV3XACC8KBxCjhI2J24bImKZDLg8TmfIAgqlgL4qAcUgMAOAAAAAAAAAAAAAAAAAAAAAAAAAAAAAA==

> <PUBCHEM_IUPAC_OPENEYE_NAME>
thiazol-5-ylmethyl N-[(1R,4R)-1-benzyl-4-[[(2S)-2-[[(2-isopropylthiazol-4-yl)methyl-methyl-carbamoyl]amino]-4-morpholino-butanoyl]amino]-5-phenyl-pentyl]carbamate

> <PUBCHEM_IUPAC_CAS_NAME>
N-[(2R,5R)-5-[[(2S)-2-[[[methyl-[(2-propan-2-yl-4-thiazolyl)methyl]amino]-oxomethyl]amino]-4-(4-morpholinyl)-1-oxobutyl]amino]-1,6-diphenylhexan-2-yl]carbamic acid 5-thiazolylmethyl ester

> <PUBCHEM_IUPAC_NAME_MARKUP>
1,3-thiazol-5-ylmethyl <I>N</I>-[(2<I>R</I>,5<I>R</I>)-5-[[(2<I>S</I>)-2-[[methyl-[(2-propan-2-yl-1,3-thiazol-4-yl)methyl]carbamoyl]amino]-4-morpholin-4-ylbutanoyl]amino]-1,6-diphenylhexan-2-yl]carbamate

> <PUBCHEM_IUPAC_NAME>
1,3-thiazol-5-ylmethyl N-[(2R,5R)-5-[[(2S)-2-[[methyl-[(2-propan-2-yl-1,3-thiazol-4-yl)methyl]carbamoyl]amino]-4-morpholin-4-ylbutanoyl]amino]-1,6-diphenylhexan-2-yl]carbamate

> <PUBCHEM_IUPAC_SYSTEMATIC_NAME>
1,3-thiazol-5-ylmethyl N-[(2R,5R)-5-[[(2S)-2-[[methyl-[(2-propan-2-yl-1,3-thiazol-4-yl)methyl]carbamoyl]amino]-4-morpholin-4-yl-butanoyl]amino]-1,6-diphenyl-hexan-2-yl]carbamate

> <PUBCHEM_IUPAC_TRADITIONAL_NAME>
N-[(1R,4R)-1-benzyl-4-[[(2S)-2-[[(2-isopropylthiazol-4-yl)methyl-methyl-carbamoyl]amino]-4-morpholino-butanoyl]amino]-5-phenyl-pentyl]carbamic acid thiazol-5-ylmethyl ester

> <PUBCHEM_IUPAC_INCHI>
InChI=1S/C40H53N7O5S2/c1-29(2)38-43-34(27-53-38)25-46(3)39(49)45-36(16-17-47-18-20-51-21-19-47)37(48)42-32(22-30-10-6-4-7-11-30)14-15-33(23-31-12-8-5-9-13-31)44-40(50)52-26-35-24-41-28-54-35/h4-13,24,27-29,32-33,36H,14-23,25-26H2,1-3H3,(H,42,48)(H,44,50)(H,45,49)/t32-,33-,36+/m1/s1

> <PUBCHEM_IUPAC_INCHIKEY>
ZCIGNRJZKPOIKD-CQXVEOKZSA-N

> <PUBCHEM_XLOGP3_AA>
5.7

> <PUBCHEM_EXACT_MASS>
775.35496

> <PUBCHEM_MOLECULAR_FORMULA>
C40H53N7O5S2

> <PUBCHEM_MOLECULAR_WEIGHT>
776

> <PUBCHEM_OPENEYE_CAN_SMILES>
CC(C)C1=NC(=CS1)CN(C)C(=O)NC(CCN2CCOCC2)C(=O)NC(CCC(CC3=CC=CC=C3)NC(=O)OCC4=CN=CS4)CC5=CC=CC=C5

> <PUBCHEM_OPENEYE_ISO_SMILES>
CC(C)C1=NC(=CS1)CN(C)C(=O)N[C@@H](CCN2CCOCC2)C(=O)N[C@H](CC[C@H](CC3=CC=CC=C3)NC(=O)OCC4=CN=CS4)CC5=CC=CC=C5

> <PUBCHEM_CACTVS_TPSA>
195

> <PUBCHEM_MONOISOTOPIC_WEIGHT>
775.35496

> <PUBCHEM_TOTAL_CHARGE>
0

> <PUBCHEM_HEAVY_ATOM_COUNT>
54

> <PUBCHEM_ATOM_DEF_STEREO_COUNT>
3

> <PUBCHEM_ATOM_UDEF_STEREO_COUNT>
0

> <PUBCHEM_BOND_DEF_STEREO_COUNT>
0

> <PUBCHEM_BOND_UDEF_STEREO_COUNT>
0

> <PUBCHEM_ISOTOPIC_ATOM_COUNT>
0

> <PUBCHEM_COMPONENT_COUNT>
1

> <PUBCHEM_CACTVS_TAUTO_COUNT>
-1

> <PUBCHEM_COORDINATE_TYPE>
1
5
255

> <PUBCHEM_BONDANNOTATIONS>
1  47  8
1  48  8
18  10  5
19  11  6
13  45  8
13  48  8
14  53  8
14  54  8
2  50  8
2  54  8
27  31  8
27  32  8
30  35  8
30  36  8
31  37  8
32  38  8
35  40  8
36  41  8
37  39  8
38  39  8
40  43  8
41  43  8
45  47  8
50  53  8
15  8  6

$$$$
