2566008
  -OEChem-05242006122D

 31 32  0     0  0  0  0  0  0999 V2000
    2.0000   -3.9239    0.0000 Cl  0  0  0  0  0  0  0  0  0  0  0  0
    3.0878   -0.5761    0.0000 S   0  0  0  0  0  0  0  0  0  0  0  0
    2.2788   -2.1639    0.0000 S   0  0  0  0  0  0  0  0  0  0  0  0
    2.0878   -0.5761    0.0000 O   0  0  0  0  0  0  0  0  0  0  0  0
    4.0878   -0.5761    0.0000 O   0  0  0  0  0  0  0  0  0  0  0  0
    2.2218    3.9239    0.0000 O   0  0  0  0  0  0  0  0  0  0  0  0
    3.0878    0.4239    0.0000 N   0  0  0  0  0  0  0  0  0  0  0  0
    3.0878    2.4239    0.0000 N   0  0  0  0  0  0  0  0  0  0  0  0
    2.2218    0.9239    0.0000 C   0  0  0  0  0  0  0  0  0  0  0  0
    3.9538    0.9239    0.0000 C   0  0  0  0  0  0  0  0  0  0  0  0
    2.2218    1.9239    0.0000 C   0  0  0  0  0  0  0  0  0  0  0  0
    3.9538    1.9239    0.0000 C   0  0  0  0  0  0  0  0  0  0  0  0
    3.0878    3.4239    0.0000 C   0  0  0  0  0  0  0  0  0  0  0  0
    3.0878   -1.5761    0.0000 C   0  0  0  0  0  0  0  0  0  0  0  0
    3.9538    3.9239    0.0000 C   0  0  0  0  0  0  0  0  0  0  0  0
    3.8968   -2.1639    0.0000 C   0  0  0  0  0  0  0  0  0  0  0  0
    3.5878   -3.1149    0.0000 C   0  0  0  0  0  0  0  0  0  0  0  0
    2.5878   -3.1149    0.0000 C   0  0  0  0  0  0  0  0  0  0  0  0
    1.6112    1.0316    0.0000 H   0  0  0  0  0  0  0  0  0  0  0  0
    2.0097    0.3413    0.0000 H   0  0  0  0  0  0  0  0  0  0  0  0
    4.1659    0.3413    0.0000 H   0  0  0  0  0  0  0  0  0  0  0  0
    4.5644    1.0316    0.0000 H   0  0  0  0  0  0  0  0  0  0  0  0
    2.0097    2.5065    0.0000 H   0  0  0  0  0  0  0  0  0  0  0  0
    1.6112    1.8163    0.0000 H   0  0  0  0  0  0  0  0  0  0  0  0
    4.5644    1.8163    0.0000 H   0  0  0  0  0  0  0  0  0  0  0  0
    4.1659    2.5065    0.0000 H   0  0  0  0  0  0  0  0  0  0  0  0
    4.4865   -1.9723    0.0000 H   0  0  0  0  0  0  0  0  0  0  0  0
    4.2638    3.3870    0.0000 H   0  0  0  0  0  0  0  0  0  0  0  0
    4.4908    4.2339    0.0000 H   0  0  0  0  0  0  0  0  0  0  0  0
    3.6438    4.4609    0.0000 H   0  0  0  0  0  0  0  0  0  0  0  0
    3.9522   -3.6165    0.0000 H   0  0  0  0  0  0  0  0  0  0  0  0
  1 18  1  0  0  0  0
  2  4  2  0  0  0  0
  2  5  2  0  0  0  0
  2  7  1  0  0  0  0
  2 14  1  0  0  0  0
  3 14  1  0  0  0  0
  3 18  1  0  0  0  0
  6 13  2  0  0  0  0
  7  9  1  0  0  0  0
  7 10  1  0  0  0  0
  8 11  1  0  0  0  0
  8 12  1  0  0  0  0
  8 13  1  0  0  0  0
  9 11  1  0  0  0  0
  9 19  1  0  0  0  0
  9 20  1  0  0  0  0
 10 12  1  0  0  0  0
 10 21  1  0  0  0  0
 10 22  1  0  0  0  0
 11 23  1  0  0  0  0
 11 24  1  0  0  0  0
 12 25  1  0  0  0  0
 12 26  1  0  0  0  0
 13 15  1  0  0  0  0
 14 16  2  0  0  0  0
 15 28  1  0  0  0  0
 15 29  1  0  0  0  0
 15 30  1  0  0  0  0
 16 17  1  0  0  0  0
 16 27  1  0  0  0  0
 17 18  2  0  0  0  0
 17 31  1  0  0  0  0
M  END
> <PUBCHEM_COMPOUND_CID>
2566008

> <PUBCHEM_COMPOUND_CANONICALIZED>
1

> <PUBCHEM_CACTVS_COMPLEXITY>
415

> <PUBCHEM_CACTVS_HBOND_ACCEPTOR>
5

> <PUBCHEM_CACTVS_HBOND_DONOR>
0

> <PUBCHEM_CACTVS_ROTATABLE_BOND>
2

> <PUBCHEM_CACTVS_SUBSKEYS>
AAADccBzMABkAAAAAAAAAAAAAAAAASAAAAAsAAAAAAAAAAABgAAAHgYAQAAACALB0CQyAYMAAAqMACFSEHBDAZAgDRBIiBgIAogIYAAhAgAQAAAABgCgAAAAAAAAAAAAAAAAAAAAAAAAAAAAAAAAAAAAAA==

> <PUBCHEM_IUPAC_OPENEYE_NAME>
1-[4-[(5-chloro-2-thienyl)sulfonyl]piperazin-1-yl]ethanone

> <PUBCHEM_IUPAC_CAS_NAME>
1-[4-[(5-chloro-2-thiophenyl)sulfonyl]-1-piperazinyl]ethanone

> <PUBCHEM_IUPAC_NAME_MARKUP>
1-[4-(5-chlorothiophen-2-yl)sulfonylpiperazin-1-yl]ethanone

> <PUBCHEM_IUPAC_NAME>
1-[4-(5-chlorothiophen-2-yl)sulfonylpiperazin-1-yl]ethanone

> <PUBCHEM_IUPAC_SYSTEMATIC_NAME>
1-[4-(5-chloranylthiophen-2-yl)sulfonylpiperazin-1-yl]ethanone

> <PUBCHEM_IUPAC_TRADITIONAL_NAME>
1-[4-[(5-chloro-2-thienyl)sulfonyl]piperazino]ethanone

> <PUBCHEM_IUPAC_INCHI>
InChI=1S/C10H13ClN2O3S2/c1-8(14)12-4-6-13(7-5-12)18(15,16)10-3-2-9(11)17-10/h2-3H,4-7H2,1H3

> <PUBCHEM_IUPAC_INCHIKEY>
LFGOPTUHDODAIB-UHFFFAOYSA-N

> <PUBCHEM_XLOGP3_AA>
1.3

> <PUBCHEM_EXACT_MASS>
308.005612

> <PUBCHEM_MOLECULAR_FORMULA>
C10H13ClN2O3S2

> <PUBCHEM_MOLECULAR_WEIGHT>
308.8

> <PUBCHEM_OPENEYE_CAN_SMILES>
CC(=O)N1CCN(CC1)S(=O)(=O)C2=CC=C(S2)Cl

> <PUBCHEM_OPENEYE_ISO_SMILES>
CC(=O)N1CCN(CC1)S(=O)(=O)C2=CC=C(S2)Cl

> <PUBCHEM_CACTVS_TPSA>
94.3

> <PUBCHEM_MONOISOTOPIC_WEIGHT>
308.005612

> <PUBCHEM_TOTAL_CHARGE>
0

> <PUBCHEM_HEAVY_ATOM_COUNT>
18

> <PUBCHEM_ATOM_DEF_STEREO_COUNT>
0

> <PUBCHEM_ATOM_UDEF_STEREO_COUNT>
0

> <PUBCHEM_BOND_DEF_STEREO_COUNT>
0

> <PUBCHEM_BOND_UDEF_STEREO_COUNT>
0

> <PUBCHEM_ISOTOPIC_ATOM_COUNT>
0

> <PUBCHEM_COMPONENT_COUNT>
1

> <PUBCHEM_CACTVS_TAUTO_COUNT>
-1

> <PUBCHEM_COORDINATE_TYPE>
1
5
255

> <PUBCHEM_BONDANNOTATIONS>
14  16  8
16  17  8
17  18  8
3  14  8
3  18  8

$$$$
