265635
  -OEChem-05242006122D

 13 13  0     0  0  0  0  0  0999 V2000
    3.7071   -0.6530    0.0000 S   0  0  0  0  0  0  0  0  0  0  0  0
    2.0000    1.0541    0.0000 O   0  0  0  0  0  0  0  0  0  0  0  0
    4.7071   -0.6530    0.0000 O   0  0  0  0  0  0  0  0  0  0  0  0
    3.7071   -1.6530    0.0000 O   0  0  0  0  0  0  0  0  0  0  0  0
    2.7071    0.3470    0.0000 C   0  0  0  0  0  0  0  0  0  0  0  0
    3.7071    0.3470    0.0000 C   0  0  0  0  0  0  0  0  0  0  0  0
    2.7071   -0.6530    0.0000 C   0  0  0  0  0  0  0  0  0  0  0  0
    2.9444    0.9198    0.0000 H   0  0  0  0  0  0  0  0  0  0  0  0
    4.3271    0.3470    0.0000 H   0  0  0  0  0  0  0  0  0  0  0  0
    3.7071    0.9670    0.0000 H   0  0  0  0  0  0  0  0  0  0  0  0
    2.0871   -0.6530    0.0000 H   0  0  0  0  0  0  0  0  0  0  0  0
    2.7071   -1.2730    0.0000 H   0  0  0  0  0  0  0  0  0  0  0  0
    2.1605    1.6530    0.0000 H   0  0  0  0  0  0  0  0  0  0  0  0
  1  3  2  0  0  0  0
  1  4  2  0  0  0  0
  1  6  1  0  0  0  0
  1  7  1  0  0  0  0
  2  5  1  0  0  0  0
  2 13  1  0  0  0  0
  5  6  1  0  0  0  0
  5  7  1  0  0  0  0
  5  8  1  0  0  0  0
  6  9  1  0  0  0  0
  6 10  1  0  0  0  0
  7 11  1  0  0  0  0
  7 12  1  0  0  0  0
M  END
> <PUBCHEM_COMPOUND_CID>
265635

> <PUBCHEM_COMPOUND_CANONICALIZED>
1

> <PUBCHEM_CACTVS_COMPLEXITY>
140

> <PUBCHEM_CACTVS_HBOND_ACCEPTOR>
3

> <PUBCHEM_CACTVS_HBOND_DONOR>
1

> <PUBCHEM_CACTVS_ROTATABLE_BOND>
0

> <PUBCHEM_CACTVS_SUBSKEYS>
AAADcYBAMABAAAAAAAAAAAAAAABIAAAAAAAAAAAAAAAAAAAAAAAAGgQACAAACBSkwAKAAAAAAgoAAAAAAHBAAAAAABAAAAAAAAAAEAAAAAAAAAAAAAAAAAAAAAAAAAAAAAAAAAAAAAAAAAAAAAAAAAAAAA==

> <PUBCHEM_IUPAC_OPENEYE_NAME>
1,1-dioxothietan-3-ol

> <PUBCHEM_IUPAC_CAS_NAME>
1,1-dioxo-3-thietanol

> <PUBCHEM_IUPAC_NAME_MARKUP>
1,1-dioxothietan-3-ol

> <PUBCHEM_IUPAC_NAME>
1,1-dioxothietan-3-ol

> <PUBCHEM_IUPAC_SYSTEMATIC_NAME>
1,1-bis(oxidanylidene)thietan-3-ol

> <PUBCHEM_IUPAC_TRADITIONAL_NAME>
1,1-diketothietan-3-ol

> <PUBCHEM_IUPAC_INCHI>
InChI=1S/C3H6O3S/c4-3-1-7(5,6)2-3/h3-4H,1-2H2

> <PUBCHEM_IUPAC_INCHIKEY>
CIUZABLJPXPIFC-UHFFFAOYSA-N

> <PUBCHEM_XLOGP3_AA>
-1.2

> <PUBCHEM_EXACT_MASS>
122.003765

> <PUBCHEM_MOLECULAR_FORMULA>
C3H6O3S

> <PUBCHEM_MOLECULAR_WEIGHT>
122.15

> <PUBCHEM_OPENEYE_CAN_SMILES>
C1C(CS1(=O)=O)O

> <PUBCHEM_OPENEYE_ISO_SMILES>
C1C(CS1(=O)=O)O

> <PUBCHEM_CACTVS_TPSA>
62.8

> <PUBCHEM_MONOISOTOPIC_WEIGHT>
122.003765

> <PUBCHEM_TOTAL_CHARGE>
0

> <PUBCHEM_HEAVY_ATOM_COUNT>
7

> <PUBCHEM_ATOM_DEF_STEREO_COUNT>
0

> <PUBCHEM_ATOM_UDEF_STEREO_COUNT>
0

> <PUBCHEM_BOND_DEF_STEREO_COUNT>
0

> <PUBCHEM_BOND_UDEF_STEREO_COUNT>
0

> <PUBCHEM_ISOTOPIC_ATOM_COUNT>
0

> <PUBCHEM_COMPONENT_COUNT>
1

> <PUBCHEM_CACTVS_TAUTO_COUNT>
-1

> <PUBCHEM_COORDINATE_TYPE>
1
5
255

$$$$
