2806372
  -OEChem-05242006122D

 26 26  0     0  0  0  0  0  0999 V2000
    5.4641    2.0670    0.0000 S   0  0  0  0  0  0  0  0  0  0  0  0
    4.9641    2.9330    0.0000 O   0  0  0  0  0  0  0  0  0  0  0  0
    5.9641    1.2010    0.0000 O   0  0  0  0  0  0  0  0  0  0  0  0
    2.8660   -2.4330    0.0000 O   0  0  0  0  0  0  0  0  0  0  0  0
    2.0000   -0.9330    0.0000 O   0  0  0  0  0  0  0  0  0  0  0  0
    4.5981    1.5670    0.0000 N   0  0  0  0  0  0  0  0  0  0  0  0
    4.5981    0.5670    0.0000 C   0  0  0  0  0  0  0  0  0  0  0  0
    3.7320    0.0670    0.0000 C   0  0  0  0  0  0  0  0  0  0  0  0
    3.7320   -0.9330    0.0000 C   0  0  0  0  0  0  0  0  0  0  0  0
    5.4641    0.0670    0.0000 C   0  0  0  0  0  0  0  0  0  0  0  0
    4.5981   -1.4330    0.0000 C   0  0  0  0  0  0  0  0  0  0  0  0
    5.4641   -0.9330    0.0000 C   0  0  0  0  0  0  0  0  0  0  0  0
    6.3301    2.5670    0.0000 C   0  0  0  0  0  0  0  0  0  0  0  0
    2.8660   -1.4330    0.0000 C   0  0  0  0  0  0  0  0  0  0  0  0
    2.0000   -2.9330    0.0000 C   0  0  0  0  0  0  0  0  0  0  0  0
    4.0611    1.8770    0.0000 H   0  0  0  0  0  0  0  0  0  0  0  0
    3.1951    0.3770    0.0000 H   0  0  0  0  0  0  0  0  0  0  0  0
    6.0010    0.3770    0.0000 H   0  0  0  0  0  0  0  0  0  0  0  0
    4.5981   -2.0530    0.0000 H   0  0  0  0  0  0  0  0  0  0  0  0
    6.0010   -1.2430    0.0000 H   0  0  0  0  0  0  0  0  0  0  0  0
    6.6401    2.0300    0.0000 H   0  0  0  0  0  0  0  0  0  0  0  0
    6.8671    2.8770    0.0000 H   0  0  0  0  0  0  0  0  0  0  0  0
    6.0201    3.1039    0.0000 H   0  0  0  0  0  0  0  0  0  0  0  0
    1.6900   -2.3961    0.0000 H   0  0  0  0  0  0  0  0  0  0  0  0
    1.4631   -3.2430    0.0000 H   0  0  0  0  0  0  0  0  0  0  0  0
    2.3100   -3.4700    0.0000 H   0  0  0  0  0  0  0  0  0  0  0  0
  1  2  2  0  0  0  0
  1  3  2  0  0  0  0
  1  6  1  0  0  0  0
  1 13  1  0  0  0  0
  4 14  1  0  0  0  0
  4 15  1  0  0  0  0
  5 14  2  0  0  0  0
  6  7  1  0  0  0  0
  6 16  1  0  0  0  0
  7  8  1  0  0  0  0
  7 10  2  0  0  0  0
  8  9  2  0  0  0  0
  8 17  1  0  0  0  0
  9 11  1  0  0  0  0
  9 14  1  0  0  0  0
 10 12  1  0  0  0  0
 10 18  1  0  0  0  0
 11 12  2  0  0  0  0
 11 19  1  0  0  0  0
 12 20  1  0  0  0  0
 13 21  1  0  0  0  0
 13 22  1  0  0  0  0
 13 23  1  0  0  0  0
 15 24  1  0  0  0  0
 15 25  1  0  0  0  0
 15 26  1  0  0  0  0
M  END
> <PUBCHEM_COMPOUND_CID>
2806372

> <PUBCHEM_COMPOUND_CANONICALIZED>
1

> <PUBCHEM_CACTVS_COMPLEXITY>
320

> <PUBCHEM_CACTVS_HBOND_ACCEPTOR>
5

> <PUBCHEM_CACTVS_HBOND_DONOR>
1

> <PUBCHEM_CACTVS_ROTATABLE_BOND>
4

> <PUBCHEM_CACTVS_SUBSKEYS>
AAADccByOABAAAAAAAAAAAAAAAAAAAAAAAAwAAAAAAAAAAABAAAAHgQQQAAADAiBmAKyyIBABAKIAiTSSHCCAAAkAgAIiAEAbMgIJjKAtZmAMQBk0AEI6Ye8yCCOAAAAQAAAAAAAAACAAAAAAAAAAAAAAA==

> <PUBCHEM_IUPAC_OPENEYE_NAME>
methyl 3-(methanesulfonamido)benzoate

> <PUBCHEM_IUPAC_CAS_NAME>
3-(methanesulfonamido)benzoic acid methyl ester

> <PUBCHEM_IUPAC_NAME_MARKUP>
methyl 3-(methanesulfonamido)benzoate

> <PUBCHEM_IUPAC_NAME>
methyl 3-(methanesulfonamido)benzoate

> <PUBCHEM_IUPAC_SYSTEMATIC_NAME>
methyl 3-(methylsulfonylamino)benzoate

> <PUBCHEM_IUPAC_TRADITIONAL_NAME>
3-(methanesulfonamido)benzoic acid methyl ester

> <PUBCHEM_IUPAC_INCHI>
InChI=1S/C9H11NO4S/c1-14-9(11)7-4-3-5-8(6-7)10-15(2,12)13/h3-6,10H,1-2H3

> <PUBCHEM_IUPAC_INCHIKEY>
UQIOKJVVJMHUTP-UHFFFAOYSA-N

> <PUBCHEM_XLOGP3>
1.2

> <PUBCHEM_EXACT_MASS>
229.040879

> <PUBCHEM_MOLECULAR_FORMULA>
C9H11NO4S

> <PUBCHEM_MOLECULAR_WEIGHT>
229.26

> <PUBCHEM_OPENEYE_CAN_SMILES>
COC(=O)C1=CC(=CC=C1)NS(=O)(=O)C

> <PUBCHEM_OPENEYE_ISO_SMILES>
COC(=O)C1=CC(=CC=C1)NS(=O)(=O)C

> <PUBCHEM_CACTVS_TPSA>
80.8

> <PUBCHEM_MONOISOTOPIC_WEIGHT>
229.040879

> <PUBCHEM_TOTAL_CHARGE>
0

> <PUBCHEM_HEAVY_ATOM_COUNT>
15

> <PUBCHEM_ATOM_DEF_STEREO_COUNT>
0

> <PUBCHEM_ATOM_UDEF_STEREO_COUNT>
0

> <PUBCHEM_BOND_DEF_STEREO_COUNT>
0

> <PUBCHEM_BOND_UDEF_STEREO_COUNT>
0

> <PUBCHEM_ISOTOPIC_ATOM_COUNT>
0

> <PUBCHEM_COMPONENT_COUNT>
1

> <PUBCHEM_CACTVS_TAUTO_COUNT>
-1

> <PUBCHEM_COORDINATE_TYPE>
1
5
255

> <PUBCHEM_BONDANNOTATIONS>
10  12  8
11  12  8
7  10  8
7  8  8
8  9  8
9  11  8

$$$$
