2973
  -OEChem-05242006112D

 87 86  0     0  0  0  0  0  0999 V2000
   13.2583    1.2500    0.0000 O   0  0  0  0  0  0  0  0  0  0  0  0
   22.7846   -1.2500    0.0000 O   0  0  0  0  0  0  0  0  0  0  0  0
   12.3923   -1.2500    0.0000 O   0  0  0  0  0  0  0  0  0  0  0  0
   19.3205   -1.2500    0.0000 O   0  0  0  0  0  0  0  0  0  0  0  0
    9.7942    1.2500    0.0000 O   0  0  0  0  0  0  0  0  0  0  0  0
    3.7320   -1.2500    0.0000 O   0  0  0  0  0  0  0  0  0  0  0  0
   21.9186    1.2500    0.0000 O   0  0  0  0  0  0  0  0  0  0  0  0
    2.8660    1.2500    0.0000 O   0  0  0  0  0  0  0  0  0  0  0  0
   13.2583    0.2500    0.0000 N   0  0  0  0  0  0  0  0  0  0  0  0
   18.4545    0.2500    0.0000 N   0  0  0  0  0  0  0  0  0  0  0  0
    8.9282   -0.2500    0.0000 N   0  0  0  0  0  0  0  0  0  0  0  0
   22.7846   -0.2500    0.0000 N   0  0  0  0  0  0  0  0  0  0  0  0
    3.7320   -0.2500    0.0000 N   0  0  0  0  0  0  0  0  0  0  0  0
   27.9808   -0.2500    0.0000 N   0  0  0  0  0  0  0  0  0  0  0  0
   15.8564   -0.2500    0.0000 C   0  0  0  0  0  0  0  0  0  0  0  0
   14.9904    0.2500    0.0000 C   0  0  0  0  0  0  0  0  0  0  0  0
   16.7224    0.2500    0.0000 C   0  0  0  0  0  0  0  0  0  0  0  0
    6.3301    0.2500    0.0000 C   0  0  0  0  0  0  0  0  0  0  0  0
   14.1244   -0.2500    0.0000 C   0  0  0  0  0  0  0  0  0  0  0  0
    7.1962   -0.2500    0.0000 C   0  0  0  0  0  0  0  0  0  0  0  0
   17.5885   -0.2500    0.0000 C   0  0  0  0  0  0  0  0  0  0  0  0
    5.4641   -0.2500    0.0000 C   0  0  0  0  0  0  0  0  0  0  0  0
   24.5167   -0.2500    0.0000 C   0  0  0  0  0  0  0  0  0  0  0  0
   25.3827    0.2500    0.0000 C   0  0  0  0  0  0  0  0  0  0  0  0
    8.0622    0.2500    0.0000 C   0  0  0  0  0  0  0  0  0  0  0  0
   23.6506    0.2500    0.0000 C   0  0  0  0  0  0  0  0  0  0  0  0
   26.2487   -0.2500    0.0000 C   0  0  0  0  0  0  0  0  0  0  0  0
    4.5981    0.2500    0.0000 C   0  0  0  0  0  0  0  0  0  0  0  0
   11.5263    0.2500    0.0000 C   0  0  0  0  0  0  0  0  0  0  0  0
   10.6603   -0.2500    0.0000 C   0  0  0  0  0  0  0  0  0  0  0  0
   20.1865    0.2500    0.0000 C   0  0  0  0  0  0  0  0  0  0  0  0
   21.0526   -0.2500    0.0000 C   0  0  0  0  0  0  0  0  0  0  0  0
   12.3923   -0.2500    0.0000 C   0  0  0  0  0  0  0  0  0  0  0  0
   19.3205   -0.2500    0.0000 C   0  0  0  0  0  0  0  0  0  0  0  0
    9.7942    0.2500    0.0000 C   0  0  0  0  0  0  0  0  0  0  0  0
   27.1147    0.2500    0.0000 C   0  0  0  0  0  0  0  0  0  0  0  0
   21.9186    0.2500    0.0000 C   0  0  0  0  0  0  0  0  0  0  0  0
    2.8660    0.2500    0.0000 C   0  0  0  0  0  0  0  0  0  0  0  0
    2.0000   -0.2500    0.0000 C   0  0  0  0  0  0  0  0  0  0  0  0
   15.4579   -0.7249    0.0000 H   0  0  0  0  0  0  0  0  0  0  0  0
   16.2549   -0.7249    0.0000 H   0  0  0  0  0  0  0  0  0  0  0  0
   15.3889    0.7249    0.0000 H   0  0  0  0  0  0  0  0  0  0  0  0
   14.5919    0.7249    0.0000 H   0  0  0  0  0  0  0  0  0  0  0  0
   17.1210    0.7249    0.0000 H   0  0  0  0  0  0  0  0  0  0  0  0
   16.3239    0.7249    0.0000 H   0  0  0  0  0  0  0  0  0  0  0  0
    6.7287    0.7249    0.0000 H   0  0  0  0  0  0  0  0  0  0  0  0
    5.9316    0.7249    0.0000 H   0  0  0  0  0  0  0  0  0  0  0  0
   13.7258   -0.7249    0.0000 H   0  0  0  0  0  0  0  0  0  0  0  0
   14.5229   -0.7249    0.0000 H   0  0  0  0  0  0  0  0  0  0  0  0
    6.7976   -0.7249    0.0000 H   0  0  0  0  0  0  0  0  0  0  0  0
    7.5947   -0.7249    0.0000 H   0  0  0  0  0  0  0  0  0  0  0  0
   17.1899   -0.7249    0.0000 H   0  0  0  0  0  0  0  0  0  0  0  0
   17.9870   -0.7249    0.0000 H   0  0  0  0  0  0  0  0  0  0  0  0
    5.0656   -0.7249    0.0000 H   0  0  0  0  0  0  0  0  0  0  0  0
    5.8626   -0.7249    0.0000 H   0  0  0  0  0  0  0  0  0  0  0  0
   24.1181   -0.7249    0.0000 H   0  0  0  0  0  0  0  0  0  0  0  0
   24.9152   -0.7249    0.0000 H   0  0  0  0  0  0  0  0  0  0  0  0
   25.7812    0.7249    0.0000 H   0  0  0  0  0  0  0  0  0  0  0  0
   24.9842    0.7249    0.0000 H   0  0  0  0  0  0  0  0  0  0  0  0
    8.4607    0.7249    0.0000 H   0  0  0  0  0  0  0  0  0  0  0  0
    7.6636    0.7249    0.0000 H   0  0  0  0  0  0  0  0  0  0  0  0
   24.0492    0.7249    0.0000 H   0  0  0  0  0  0  0  0  0  0  0  0
   23.2521    0.7249    0.0000 H   0  0  0  0  0  0  0  0  0  0  0  0
   25.8502   -0.7249    0.0000 H   0  0  0  0  0  0  0  0  0  0  0  0
   26.6472   -0.7249    0.0000 H   0  0  0  0  0  0  0  0  0  0  0  0
    4.9966    0.7249    0.0000 H   0  0  0  0  0  0  0  0  0  0  0  0
    4.1996    0.7249    0.0000 H   0  0  0  0  0  0  0  0  0  0  0  0
   18.4545    0.8700    0.0000 H   0  0  0  0  0  0  0  0  0  0  0  0
   11.9248    0.7249    0.0000 H   0  0  0  0  0  0  0  0  0  0  0  0
   11.1278    0.7249    0.0000 H   0  0  0  0  0  0  0  0  0  0  0  0
   10.2617   -0.7249    0.0000 H   0  0  0  0  0  0  0  0  0  0  0  0
   11.0588   -0.7249    0.0000 H   0  0  0  0  0  0  0  0  0  0  0  0
   20.5851    0.7249    0.0000 H   0  0  0  0  0  0  0  0  0  0  0  0
   19.7880    0.7249    0.0000 H   0  0  0  0  0  0  0  0  0  0  0  0
    8.9282   -0.8700    0.0000 H   0  0  0  0  0  0  0  0  0  0  0  0
   20.6540   -0.7249    0.0000 H   0  0  0  0  0  0  0  0  0  0  0  0
   21.4511   -0.7249    0.0000 H   0  0  0  0  0  0  0  0  0  0  0  0
   27.5133    0.7249    0.0000 H   0  0  0  0  0  0  0  0  0  0  0  0
   26.7162    0.7249    0.0000 H   0  0  0  0  0  0  0  0  0  0  0  0
   13.7953    1.5600    0.0000 H   0  0  0  0  0  0  0  0  0  0  0  0
   28.5177    0.0600    0.0000 H   0  0  0  0  0  0  0  0  0  0  0  0
   27.9808   -0.8700    0.0000 H   0  0  0  0  0  0  0  0  0  0  0  0
   23.3215   -1.5600    0.0000 H   0  0  0  0  0  0  0  0  0  0  0  0
    3.1951   -1.5600    0.0000 H   0  0  0  0  0  0  0  0  0  0  0  0
    1.6900    0.2869    0.0000 H   0  0  0  0  0  0  0  0  0  0  0  0
    1.4631   -0.5600    0.0000 H   0  0  0  0  0  0  0  0  0  0  0  0
    2.3100   -0.7869    0.0000 H   0  0  0  0  0  0  0  0  0  0  0  0
  1  9  1  0  0  0  0
  1 80  1  0  0  0  0
  2 12  1  0  0  0  0
  2 83  1  0  0  0  0
  3 33  2  0  0  0  0
  4 34  2  0  0  0  0
  5 35  2  0  0  0  0
  6 13  1  0  0  0  0
  6 84  1  0  0  0  0
  7 37  2  0  0  0  0
  8 38  2  0  0  0  0
  9 19  1  0  0  0  0
  9 33  1  0  0  0  0
 10 21  1  0  0  0  0
 10 34  1  0  0  0  0
 10 68  1  0  0  0  0
 11 25  1  0  0  0  0
 11 35  1  0  0  0  0
 11 75  1  0  0  0  0
 12 26  1  0  0  0  0
 12 37  1  0  0  0  0
 13 28  1  0  0  0  0
 13 38  1  0  0  0  0
 14 36  1  0  0  0  0
 14 81  1  0  0  0  0
 14 82  1  0  0  0  0
 15 16  1  0  0  0  0
 15 17  1  0  0  0  0
 15 40  1  0  0  0  0
 15 41  1  0  0  0  0
 16 19  1  0  0  0  0
 16 42  1  0  0  0  0
 16 43  1  0  0  0  0
 17 21  1  0  0  0  0
 17 44  1  0  0  0  0
 17 45  1  0  0  0  0
 18 20  1  0  0  0  0
 18 22  1  0  0  0  0
 18 46  1  0  0  0  0
 18 47  1  0  0  0  0
 19 48  1  0  0  0  0
 19 49  1  0  0  0  0
 20 25  1  0  0  0  0
 20 50  1  0  0  0  0
 20 51  1  0  0  0  0
 21 52  1  0  0  0  0
 21 53  1  0  0  0  0
 22 28  1  0  0  0  0
 22 54  1  0  0  0  0
 22 55  1  0  0  0  0
 23 24  1  0  0  0  0
 23 26  1  0  0  0  0
 23 56  1  0  0  0  0
 23 57  1  0  0  0  0
 24 27  1  0  0  0  0
 24 58  1  0  0  0  0
 24 59  1  0  0  0  0
 25 60  1  0  0  0  0
 25 61  1  0  0  0  0
 26 62  1  0  0  0  0
 26 63  1  0  0  0  0
 27 36  1  0  0  0  0
 27 64  1  0  0  0  0
 27 65  1  0  0  0  0
 28 66  1  0  0  0  0
 28 67  1  0  0  0  0
 29 30  1  0  0  0  0
 29 33  1  0  0  0  0
 29 69  1  0  0  0  0
 29 70  1  0  0  0  0
 30 35  1  0  0  0  0
 30 71  1  0  0  0  0
 30 72  1  0  0  0  0
 31 32  1  0  0  0  0
 31 34  1  0  0  0  0
 31 73  1  0  0  0  0
 31 74  1  0  0  0  0
 32 37  1  0  0  0  0
 32 76  1  0  0  0  0
 32 77  1  0  0  0  0
 36 78  1  0  0  0  0
 36 79  1  0  0  0  0
 38 39  1  0  0  0  0
 39 85  1  0  0  0  0
 39 86  1  0  0  0  0
 39 87  1  0  0  0  0
M  END
> <PUBCHEM_COMPOUND_CID>
2973

> <PUBCHEM_COMPOUND_CANONICALIZED>
1

> <PUBCHEM_CACTVS_COMPLEXITY>
739

> <PUBCHEM_CACTVS_HBOND_ACCEPTOR>
9

> <PUBCHEM_CACTVS_HBOND_DONOR>
6

> <PUBCHEM_CACTVS_ROTATABLE_BOND>
23

> <PUBCHEM_CACTVS_SUBSKEYS>
AAADcfB7vAAAAAAAAAAAAAAAAAAAAAAAAAAAAAAAAAAAAAAAAAAAHgAUCAAACADBgAQCAALQAAAIAAEQEAAAAAAAAAAgAIEIAAAAABIAgAAEAAAAFgCAAAAVAAAAAAAAAAAAAAAAAAAAAAAAAAAAAAAAAA==

> <PUBCHEM_IUPAC_OPENEYE_NAME>
N-[5-[[4-[5-[acetyl(hydroxy)amino]pentylamino]-4-oxo-butanoyl]-hydroxy-amino]pentyl]-N'-(5-aminopentyl)-N'-hydroxy-butanediamide

> <PUBCHEM_IUPAC_CAS_NAME>
N-[5-[[4-[5-[acetyl(hydroxy)amino]pentylamino]-1,4-dioxobutyl]-hydroxyamino]pentyl]-N'-(5-aminopentyl)-N'-hydroxybutanediamide

> <PUBCHEM_IUPAC_NAME_MARKUP>
<I>N</I>-[5-[[4-[5-[acetyl(hydroxy)amino]pentylamino]-4-oxobutanoyl]-hydroxyamino]pentyl]-<I>N</I>&apos;-(5-aminopentyl)-<I>N</I>&apos;-hydroxybutanediamide

> <PUBCHEM_IUPAC_NAME>
N-[5-[[4-[5-[acetyl(hydroxy)amino]pentylamino]-4-oxobutanoyl]-hydroxyamino]pentyl]-N'-(5-aminopentyl)-N'-hydroxybutanediamide

> <PUBCHEM_IUPAC_SYSTEMATIC_NAME>
N'-(5-azanylpentyl)-N-[5-[[4-[5-[ethanoyl(oxidanyl)amino]pentylamino]-4-oxidanylidene-butanoyl]-oxidanyl-amino]pentyl]-N'-oxidanyl-butanediamide

> <PUBCHEM_IUPAC_TRADITIONAL_NAME>
N-[5-[[4-[5-[acetyl(hydroxy)amino]pentylamino]-4-keto-butanoyl]-hydroxy-amino]pentyl]-N'-(5-aminopentyl)-N'-hydroxy-succinamide

> <PUBCHEM_IUPAC_INCHI>
InChI=1S/C25H48N6O8/c1-21(32)29(37)18-9-3-6-16-27-22(33)12-14-25(36)31(39)20-10-4-7-17-28-23(34)11-13-24(35)30(38)19-8-2-5-15-26/h37-39H,2-20,26H2,1H3,(H,27,33)(H,28,34)

> <PUBCHEM_IUPAC_INCHIKEY>
UBQYURCVBFRUQT-UHFFFAOYSA-N

> <PUBCHEM_XLOGP3_AA>
-2.1

> <PUBCHEM_EXACT_MASS>
560.353363

> <PUBCHEM_MOLECULAR_FORMULA>
C25H48N6O8

> <PUBCHEM_MOLECULAR_WEIGHT>
560.7

> <PUBCHEM_OPENEYE_CAN_SMILES>
CC(=O)N(CCCCCNC(=O)CCC(=O)N(CCCCCNC(=O)CCC(=O)N(CCCCCN)O)O)O

> <PUBCHEM_OPENEYE_ISO_SMILES>
CC(=O)N(CCCCCNC(=O)CCC(=O)N(CCCCCNC(=O)CCC(=O)N(CCCCCN)O)O)O

> <PUBCHEM_CACTVS_TPSA>
206

> <PUBCHEM_MONOISOTOPIC_WEIGHT>
560.353363

> <PUBCHEM_TOTAL_CHARGE>
0

> <PUBCHEM_HEAVY_ATOM_COUNT>
39

> <PUBCHEM_ATOM_DEF_STEREO_COUNT>
0

> <PUBCHEM_ATOM_UDEF_STEREO_COUNT>
0

> <PUBCHEM_BOND_DEF_STEREO_COUNT>
0

> <PUBCHEM_BOND_UDEF_STEREO_COUNT>
0

> <PUBCHEM_ISOTOPIC_ATOM_COUNT>
0

> <PUBCHEM_COMPONENT_COUNT>
1

> <PUBCHEM_CACTVS_TAUTO_COUNT>
-1

> <PUBCHEM_COORDINATE_TYPE>
1
5
255

$$$$
