3033819
  -OEChem-05242006122D

130130  0     1  0  0  0  0  0999 V2000
    9.2240    4.0369    0.0000 O   0  0  0  0  0  0  0  0  0  0  0  0
    7.5959    6.2777    0.0000 O   0  0  0  0  0  0  0  0  0  0  0  0
   10.3167    3.6604    0.0000 O   0  0  0  0  0  0  0  0  0  0  0  0
    7.4919    4.0369    0.0000 O   0  0  0  0  0  0  0  0  0  0  0  0
    6.4370    7.5649    0.0000 O   0  0  0  0  0  0  0  0  0  0  0  0
    9.7240    9.0683    0.0000 O   0  0  0  0  0  0  0  0  0  0  0  0
    3.9725    6.0187    0.0000 O   0  0  0  0  0  0  0  0  0  0  0  0
    9.2240    2.0369    0.0000 O   0  0  0  0  0  0  0  0  0  0  0  0
    3.7917    7.5138    0.0000 O   0  0  0  0  0  0  0  0  0  0  0  0
   11.7219   10.2714    0.0000 O   0  0  0  0  0  0  0  0  0  0  0  0
   13.2047    9.5160    0.0000 O   0  0  0  0  0  0  0  0  0  0  0  0
    8.1718    8.9870    0.0000 O   0  0  0  0  0  0  0  0  0  0  0  0
    0.5369    6.6725    0.0000 O   0  0  0  0  0  0  0  0  0  0  0  0
    9.0126   13.3450    0.0000 O   0  0  0  0  0  0  0  0  0  0  0  0
   13.3313    6.9856    0.0000 N   0  0  3  0  0  0  0  0  0  0  0  0
    7.4919    1.0369    0.0000 N   0  0  0  0  0  0  0  0  0  0  0  0
    9.7240    4.9030    0.0000 C   0  0  2  0  0  0  0  0  0  0  0  0
    8.9808    5.5721    0.0000 C   0  0  2  0  0  0  0  0  0  0  0  0
   10.6750    4.5939    0.0000 C   0  0  1  0  0  0  0  0  0  0  0  0
    8.5741    6.4856    0.0000 C   0  0  1  0  0  0  0  0  0  0  0  0
   11.6695    4.6985    0.0000 C   0  0  0  0  0  0  0  0  0  0  0  0
   12.5356    5.1985    0.0000 C   0  0  2  0  0  0  0  0  0  0  0  0
    8.5741    7.4856    0.0000 C   0  0  2  0  0  0  0  0  0  0  0  0
    8.3579    3.5369    0.0000 C   0  0  2  0  0  0  0  0  0  0  0  0
    8.1718    4.9843    0.0000 C   0  0  0  0  0  0  0  0  0  0  0  0
    6.6449    6.5867    0.0000 C   0  0  2  0  0  0  0  0  0  0  0  0
   11.3043    3.8168    0.0000 C   0  0  0  0  0  0  0  0  0  0  0  0
    4.9507    6.2266    0.0000 C   0  0  2  0  0  0  0  0  0  0  0  0
    8.3579    2.5369    0.0000 C   0  0  1  0  0  0  0  0  0  0  0  0
   13.1234    6.0075    0.0000 C   0  0  0  0  0  0  0  0  0  0  0  0
    7.4919    2.0369    0.0000 C   0  0  2  0  0  0  0  0  0  0  0  0
    5.9017    5.9176    0.0000 C   0  0  0  0  0  0  0  0  0  0  0  0
    4.7428    7.2048    0.0000 C   0  0  2  0  0  0  0  0  0  0  0  0
   13.1234    7.9638    0.0000 C   0  0  1  0  0  0  0  0  0  0  0  0
   11.6695    9.2728    0.0000 C   0  0  1  0  0  0  0  0  0  0  0  0
    6.6259    2.5369    0.0000 C   0  0  0  0  0  0  0  0  0  0  0  0
   12.5356    8.7728    0.0000 C   0  0  2  0  0  0  0  0  0  0  0  0
    5.4859    7.8739    0.0000 C   0  0  2  0  0  0  0  0  0  0  0  0
    6.6259    3.5369    0.0000 C   0  0  1  0  0  0  0  0  0  0  0  0
   10.6750    9.3773    0.0000 C   0  0  1  0  0  0  0  0  0  0  0  0
   13.2047    4.4553    0.0000 C   0  0  0  0  0  0  0  0  0  0  0  0
    8.9808    8.3992    0.0000 C   0  0  0  0  0  0  0  0  0  0  0  0
    7.5959    7.6936    0.0000 C   0  0  0  0  0  0  0  0  0  0  0  0
    4.6417    5.2756    0.0000 C   0  0  0  0  0  0  0  0  0  0  0  0
   14.0369    8.3705    0.0000 C   0  0  0  0  0  0  0  0  0  0  0  0
   12.4682    9.8746    0.0000 C   0  0  0  0  0  0  0  0  0  0  0  0
   10.5705   10.3719    0.0000 C   0  0  0  0  0  0  0  0  0  0  0  0
   14.3313    6.9856    0.0000 C   0  0  0  0  0  0  0  0  0  0  0  0
    5.2780    8.8520    0.0000 C   0  0  0  0  0  0  0  0  0  0  0  0
    5.7599    4.0369    0.0000 C   0  0  0  0  0  0  0  0  0  0  0  0
    6.6259    0.5369    0.0000 C   0  0  0  0  0  0  0  0  0  0  0  0
    8.3579    0.5369    0.0000 C   0  0  0  0  0  0  0  0  0  0  0  0
    9.6570   10.7786    0.0000 C   0  0  0  0  0  0  0  0  0  0  0  0
    3.6635    5.0678    0.0000 C   0  0  0  0  0  0  0  0  0  0  0  0
    9.1116    4.8060    0.0000 H   0  0  0  0  0  0  0  0  0  0  0  0
    8.3820    5.7326    0.0000 H   0  0  0  0  0  0  0  0  0  0  0  0
    8.2926    5.9332    0.0000 H   0  0  0  0  0  0  0  0  0  0  0  0
   11.4987    4.1025    0.0000 H   0  0  0  0  0  0  0  0  0  0  0  0
   11.4780    5.2881    0.0000 H   0  0  0  0  0  0  0  0  0  0  0  0
   13.1547    5.2309    0.0000 H   0  0  0  0  0  0  0  0  0  0  0  0
    8.2926    8.0381    0.0000 H   0  0  0  0  0  0  0  0  0  0  0  0
    8.3579    4.1569    0.0000 H   0  0  0  0  0  0  0  0  0  0  0  0
    7.8074    5.4859    0.0000 H   0  0  0  0  0  0  0  0  0  0  0  0
    7.6702    4.6199    0.0000 H   0  0  0  0  0  0  0  0  0  0  0  0
    8.5362    4.4827    0.0000 H   0  0  0  0  0  0  0  0  0  0  0  0
    6.7738    5.9803    0.0000 H   0  0  0  0  0  0  0  0  0  0  0  0
   10.8225    3.4266    0.0000 H   0  0  0  0  0  0  0  0  0  0  0  0
   11.6945    3.3350    0.0000 H   0  0  0  0  0  0  0  0  0  0  0  0
   11.7862    4.2070    0.0000 H   0  0  0  0  0  0  0  0  0  0  0  0
    8.3579    1.9169    0.0000 H   0  0  0  0  0  0  0  0  0  0  0  0
   13.4519    5.4817    0.0000 H   0  0  0  0  0  0  0  0  0  0  0  0
   12.5570    6.2597    0.0000 H   0  0  0  0  0  0  0  0  0  0  0  0
    6.9550    1.7269    0.0000 H   0  0  0  0  0  0  0  0  0  0  0  0
    5.6107    5.3702    0.0000 H   0  0  0  0  0  0  0  0  0  0  0  0
    6.3903    5.5359    0.0000 H   0  0  0  0  0  0  0  0  0  0  0  0
    4.2820    6.7899    0.0000 H   0  0  0  0  0  0  0  0  0  0  0  0
   13.6758    7.6823    0.0000 H   0  0  0  0  0  0  0  0  0  0  0  0
    6.0153    2.6446    0.0000 H   0  0  0  0  0  0  0  0  0  0  0  0
    6.4138    1.9543    0.0000 H   0  0  0  0  0  0  0  0  0  0  0  0
   13.1547    8.7404    0.0000 H   0  0  0  0  0  0  0  0  0  0  0  0
    5.9467    8.2888    0.0000 H   0  0  0  0  0  0  0  0  0  0  0  0
    6.6259    4.1569    0.0000 H   0  0  0  0  0  0  0  0  0  0  0  0
   10.1551    9.7150    0.0000 H   0  0  0  0  0  0  0  0  0  0  0  0
    9.7043    3.5634    0.0000 H   0  0  0  0  0  0  0  0  0  0  0  0
   12.7440    4.0405    0.0000 H   0  0  0  0  0  0  0  0  0  0  0  0
   13.6196    3.9946    0.0000 H   0  0  0  0  0  0  0  0  0  0  0  0
   13.6655    4.8702    0.0000 H   0  0  0  0  0  0  0  0  0  0  0  0
    7.7248    8.3000    0.0000 H   0  0  0  0  0  0  0  0  0  0  0  0
    6.9895    7.8224    0.0000 H   0  0  0  0  0  0  0  0  0  0  0  0
    7.4670    7.0871    0.0000 H   0  0  0  0  0  0  0  0  0  0  0  0
    4.0520    5.4672    0.0000 H   0  0  0  0  0  0  0  0  0  0  0  0
    4.4501    4.6859    0.0000 H   0  0  0  0  0  0  0  0  0  0  0  0
    5.2313    5.0840    0.0000 H   0  0  0  0  0  0  0  0  0  0  0  0
   14.2891    7.8041    0.0000 H   0  0  0  0  0  0  0  0  0  0  0  0
   14.6033    8.6227    0.0000 H   0  0  0  0  0  0  0  0  0  0  0  0
   13.7847    8.9369    0.0000 H   0  0  0  0  0  0  0  0  0  0  0  0
   12.8413    9.3795    0.0000 H   0  0  0  0  0  0  0  0  0  0  0  0
   12.9633   10.2477    0.0000 H   0  0  0  0  0  0  0  0  0  0  0  0
   12.0951   10.3698    0.0000 H   0  0  0  0  0  0  0  0  0  0  0  0
   11.1890   10.3286    0.0000 H   0  0  0  0  0  0  0  0  0  0  0  0
   10.7205   10.9734    0.0000 H   0  0  0  0  0  0  0  0  0  0  0  0
   14.3313    6.3656    0.0000 H   0  0  0  0  0  0  0  0  0  0  0  0
   14.9513    6.9856    0.0000 H   0  0  0  0  0  0  0  0  0  0  0  0
   14.3313    7.6056    0.0000 H   0  0  0  0  0  0  0  0  0  0  0  0
    5.8845    8.9810    0.0000 H   0  0  0  0  0  0  0  0  0  0  0  0
    5.1491    9.4585    0.0000 H   0  0  0  0  0  0  0  0  0  0  0  0
    4.6716    8.7232    0.0000 H   0  0  0  0  0  0  0  0  0  0  0  0
    6.0699    4.5739    0.0000 H   0  0  0  0  0  0  0  0  0  0  0  0
    5.2229    4.3469    0.0000 H   0  0  0  0  0  0  0  0  0  0  0  0
    5.4499    3.5000    0.0000 H   0  0  0  0  0  0  0  0  0  0  0  0
    9.7609    2.3469    0.0000 H   0  0  0  0  0  0  0  0  0  0  0  0
    3.6628    8.1202    0.0000 H   0  0  0  0  0  0  0  0  0  0  0  0
   11.2019   10.6091    0.0000 H   0  0  0  0  0  0  0  0  0  0  0  0
   13.8112    9.3870    0.0000 H   0  0  0  0  0  0  0  0  0  0  0  0
    6.3159    1.0739    0.0000 H   0  0  0  0  0  0  0  0  0  0  0  0
    6.0890    0.2269    0.0000 H   0  0  0  0  0  0  0  0  0  0  0  0
    6.9359    0.0000    0.0000 H   0  0  0  0  0  0  0  0  0  0  0  0
    8.0480    0.0000    0.0000 H   0  0  0  0  0  0  0  0  0  0  0  0
    8.8949    0.2269    0.0000 H   0  0  0  0  0  0  0  0  0  0  0  0
    8.6679    1.0739    0.0000 H   0  0  0  0  0  0  0  0  0  0  0  0
    9.9091   11.3450    0.0000 H   0  0  0  0  0  0  0  0  0  0  0  0
    9.0906   11.0308    0.0000 H   0  0  0  0  0  0  0  0  0  0  0  0
    9.4048   10.2122    0.0000 H   0  0  0  0  0  0  0  0  0  0  0  0
    3.0739    5.2594    0.0000 H   0  0  0  0  0  0  0  0  0  0  0  0
    3.4719    4.4781    0.0000 H   0  0  0  0  0  0  0  0  0  0  0  0
    4.2532    4.8762    0.0000 H   0  0  0  0  0  0  0  0  0  0  0  0
    1.0739    6.9825    0.0000 H   0  0  0  0  0  0  0  0  0  0  0  0
    0.0000    6.9825    0.0000 H   0  0  0  0  0  0  0  0  0  0  0  0
    9.5495   13.6550    0.0000 H   0  0  0  0  0  0  0  0  0  0  0  0
    8.4756   13.6550    0.0000 H   0  0  0  0  0  0  0  0  0  0  0  0
 17  1  1  6  0  0  0
 24  1  1  1  0  0  0
 20  2  1  6  0  0  0
 26  2  1  1  0  0  0
 19  3  1  1  0  0  0
  3 84  1  0  0  0  0
  4 24  1  0  0  0  0
  4 39  1  0  0  0  0
  5 26  1  0  0  0  0
  5 38  1  0  0  0  0
  6 40  1  0  0  0  0
  6 42  1  0  0  0  0
 28  7  1  1  0  0  0
  7 54  1  0  0  0  0
 29  8  1  6  0  0  0
  8111  1  0  0  0  0
 33  9  1  1  0  0  0
  9112  1  0  0  0  0
 35 10  1  1  0  0  0
 10113  1  0  0  0  0
 37 11  1  6  0  0  0
 11114  1  0  0  0  0
 12 42  2  0  0  0  0
 13127  1  0  0  0  0
 13128  1  0  0  0  0
 14129  1  0  0  0  0
 14130  1  0  0  0  0
 15 30  1  0  0  0  0
 15 34  1  0  0  0  0
 15 48  1  0  0  0  0
 31 16  1  1  0  0  0
 16 51  1  0  0  0  0
 16 52  1  0  0  0  0
 17 18  1  0  0  0  0
 17 19  1  0  0  0  0
 17 55  1  0  0  0  0
 18 20  1  0  0  0  0
 18 25  1  1  0  0  0
 18 56  1  0  0  0  0
 19 21  1  0  0  0  0
 19 27  1  0  0  0  0
 20 23  1  0  0  0  0
 20 57  1  0  0  0  0
 21 22  1  0  0  0  0
 21 58  1  0  0  0  0
 21 59  1  0  0  0  0
 22 30  1  0  0  0  0
 22 41  1  6  0  0  0
 22 60  1  0  0  0  0
 23 42  1  0  0  0  0
 23 43  1  1  0  0  0
 23 61  1  0  0  0  0
 24 29  1  0  0  0  0
 24 62  1  0  0  0  0
 25 63  1  0  0  0  0
 25 64  1  0  0  0  0
 25 65  1  0  0  0  0
 26 32  1  0  0  0  0
 26 66  1  0  0  0  0
 27 67  1  0  0  0  0
 27 68  1  0  0  0  0
 27 69  1  0  0  0  0
 28 32  1  0  0  0  0
 28 33  1  0  0  0  0
 28 44  1  0  0  0  0
 29 31  1  0  0  0  0
 29 70  1  0  0  0  0
 30 71  1  0  0  0  0
 30 72  1  0  0  0  0
 31 36  1  0  0  0  0
 31 73  1  0  0  0  0
 32 74  1  0  0  0  0
 32 75  1  0  0  0  0
 33 38  1  0  0  0  0
 33 76  1  0  0  0  0
 34 37  1  0  0  0  0
 34 45  1  1  0  0  0
 34 77  1  0  0  0  0
 35 37  1  0  0  0  0
 35 40  1  0  0  0  0
 35 46  1  0  0  0  0
 36 39  1  0  0  0  0
 36 78  1  0  0  0  0
 36 79  1  0  0  0  0
 37 80  1  0  0  0  0
 38 49  1  6  0  0  0
 38 81  1  0  0  0  0
 39 50  1  1  0  0  0
 39 82  1  0  0  0  0
 40 47  1  6  0  0  0
 40 83  1  0  0  0  0
 41 85  1  0  0  0  0
 41 86  1  0  0  0  0
 41 87  1  0  0  0  0
 43 88  1  0  0  0  0
 43 89  1  0  0  0  0
 43 90  1  0  0  0  0
 44 91  1  0  0  0  0
 44 92  1  0  0  0  0
 44 93  1  0  0  0  0
 45 94  1  0  0  0  0
 45 95  1  0  0  0  0
 45 96  1  0  0  0  0
 46 97  1  0  0  0  0
 46 98  1  0  0  0  0
 46 99  1  0  0  0  0
 47 53  1  0  0  0  0
 47100  1  0  0  0  0
 47101  1  0  0  0  0
 48102  1  0  0  0  0
 48103  1  0  0  0  0
 48104  1  0  0  0  0
 49105  1  0  0  0  0
 49106  1  0  0  0  0
 49107  1  0  0  0  0
 50108  1  0  0  0  0
 50109  1  0  0  0  0
 50110  1  0  0  0  0
 51115  1  0  0  0  0
 51116  1  0  0  0  0
 51117  1  0  0  0  0
 52118  1  0  0  0  0
 52119  1  0  0  0  0
 52120  1  0  0  0  0
 53121  1  0  0  0  0
 53122  1  0  0  0  0
 53123  1  0  0  0  0
 54124  1  0  0  0  0
 54125  1  0  0  0  0
 54126  1  0  0  0  0
M  END
> <PUBCHEM_COMPOUND_CID>
3033819

> <PUBCHEM_COMPOUND_CANONICALIZED>
1

> <PUBCHEM_CACTVS_COMPLEXITY>
1150

> <PUBCHEM_CACTVS_HBOND_ACCEPTOR>
16

> <PUBCHEM_CACTVS_HBOND_DONOR>
7

> <PUBCHEM_CACTVS_ROTATABLE_BOND>
7

> <PUBCHEM_CACTVS_SUBSKEYS>
AAADcfB/PAAAAAAAAAAAAAAAAAAAAAAAAAAkSAAAAAAAAAAAAAAAHgAACAAADXzxgAcCCAMABgAIAACQCAAAAAAAAAAAAAEIAAATEBYAgAAmQAAHIACXAAH4/P7OAAAAAAAAAAAAAAAAAAAAAAAAAAAAAA==

> <PUBCHEM_IUPAC_OPENEYE_NAME>
(2R,3S,4R,5R,8R,10R,11R,12S,13S,14R)-11-[(2S,3R,4S,6R)-4-(dimethylamino)-3-hydroxy-6-methyl-tetrahydropyran-2-yl]oxy-2-ethyl-3,4,10-trihydroxy-13-[(2R,4R,5S,6S)-5-hydroxy-4-methoxy-4,6-dimethyl-tetrahydropyran-2-yl]oxy-3,5,6,8,10,12,14-heptamethyl-1-oxa-6-azacyclopentadecan-15-one;dihydrate

> <PUBCHEM_IUPAC_CAS_NAME>
(2R,3S,4R,5R,8R,10R,11R,12S,13S,14R)-11-[[(2S,3R,4S,6R)-4-(dimethylamino)-3-hydroxy-6-methyl-2-oxanyl]oxy]-2-ethyl-3,4,10-trihydroxy-13-[[(2R,4R,5S,6S)-5-hydroxy-4-methoxy-4,6-dimethyl-2-oxanyl]oxy]-3,5,6,8,10,12,14-heptamethyl-1-oxa-6-azacyclopentadecan-15-one;dihydrate

> <PUBCHEM_IUPAC_NAME_MARKUP>
(2<I>R</I>,3<I>S</I>,4<I>R</I>,5<I>R</I>,8<I>R</I>,10<I>R</I>,11<I>R</I>,12<I>S</I>,13<I>S</I>,14<I>R</I>)-11-[(2<I>S</I>,3<I>R</I>,4<I>S</I>,6<I>R</I>)-4-(dimethylamino)-3-hydroxy-6-methyloxan-2-yl]oxy-2-ethyl-3,4,10-trihydroxy-13-[(2<I>R</I>,4<I>R</I>,5<I>S</I>,6<I>S</I>)-5-hydroxy-4-methoxy-4,6-dimethyloxan-2-yl]oxy-3,5,6,8,10,12,14-heptamethyl-1-oxa-6-azacyclopentadecan-15-one;dihydrate

> <PUBCHEM_IUPAC_NAME>
(2R,3S,4R,5R,8R,10R,11R,12S,13S,14R)-11-[(2S,3R,4S,6R)-4-(dimethylamino)-3-hydroxy-6-methyloxan-2-yl]oxy-2-ethyl-3,4,10-trihydroxy-13-[(2R,4R,5S,6S)-5-hydroxy-4-methoxy-4,6-dimethyloxan-2-yl]oxy-3,5,6,8,10,12,14-heptamethyl-1-oxa-6-azacyclopentadecan-15-one;dihydrate

> <PUBCHEM_IUPAC_SYSTEMATIC_NAME>
(2R,3S,4R,5R,8R,10R,11R,12S,13S,14R)-11-[(2S,3R,4S,6R)-4-(dimethylamino)-6-methyl-3-oxidanyl-oxan-2-yl]oxy-2-ethyl-13-[(2R,4R,5S,6S)-4-methoxy-4,6-dimethyl-5-oxidanyl-oxan-2-yl]oxy-3,5,6,8,10,12,14-heptamethyl-3,4,10-tris(oxidanyl)-1-oxa-6-azacyclopentadecan-15-one;dihydrate

> <PUBCHEM_IUPAC_TRADITIONAL_NAME>
(2R,3S,4R,5R,8R,10R,11R,12S,13S,14R)-11-[(2S,3R,4S,6R)-4-(dimethylamino)-3-hydroxy-6-methyl-tetrahydropyran-2-yl]oxy-2-ethyl-3,4,10-trihydroxy-13-[(2R,4R,5S,6S)-5-hydroxy-4-methoxy-4,6-dimethyl-tetrahydropyran-2-yl]oxy-3,5,6,8,10,12,14-heptamethyl-1-oxa-6-azacyclopentadecan-15-one;dihydrate

> <PUBCHEM_IUPAC_INCHI>
InChI=1S/C38H72N2O12.2H2O/c1-15-27-38(10,46)31(42)24(6)40(13)19-20(2)17-36(8,45)33(52-35-29(41)26(39(11)12)16-21(3)48-35)22(4)30(23(5)34(44)50-27)51-28-18-37(9,47-14)32(43)25(7)49-28;;/h20-33,35,41-43,45-46H,15-19H2,1-14H3;2*1H2/t20-,21-,22+,23-,24-,25+,26+,27-,28+,29-,30+,31-,32+,33-,35+,36-,37-,38-;;/m1../s1

> <PUBCHEM_IUPAC_INCHIKEY>
SRMPHJKQVUDLQE-KUJJYQHYSA-N

> <PUBCHEM_EXACT_MASS>
784.529655

> <PUBCHEM_MOLECULAR_FORMULA>
C38H76N2O14

> <PUBCHEM_MOLECULAR_WEIGHT>
785

> <PUBCHEM_OPENEYE_CAN_SMILES>
CCC1C(C(C(N(CC(CC(C(C(C(C(C(=O)O1)C)OC2CC(C(C(O2)C)O)(C)OC)C)OC3C(C(CC(O3)C)N(C)C)O)(C)O)C)C)C)O)(C)O.O.O

> <PUBCHEM_OPENEYE_ISO_SMILES>
CC[C@@H]1[C@@]([C@@H]([C@H](N(C[C@@H](C[C@@]([C@@H]([C@H]([C@@H]([C@H](C(=O)O1)C)O[C@H]2C[C@@]([C@H]([C@@H](O2)C)O)(C)OC)C)O[C@H]3[C@@H]([C@H](C[C@H](O3)C)N(C)C)O)(C)O)C)C)C)O)(C)O.O.O

> <PUBCHEM_CACTVS_TPSA>
182

> <PUBCHEM_MONOISOTOPIC_WEIGHT>
784.529655

> <PUBCHEM_TOTAL_CHARGE>
0

> <PUBCHEM_HEAVY_ATOM_COUNT>
54

> <PUBCHEM_ATOM_DEF_STEREO_COUNT>
18

> <PUBCHEM_ATOM_UDEF_STEREO_COUNT>
0

> <PUBCHEM_BOND_DEF_STEREO_COUNT>
0

> <PUBCHEM_BOND_UDEF_STEREO_COUNT>
0

> <PUBCHEM_ISOTOPIC_ATOM_COUNT>
0

> <PUBCHEM_COMPONENT_COUNT>
3

> <PUBCHEM_CACTVS_TAUTO_COUNT>
-1

> <PUBCHEM_COORDINATE_TYPE>
1
5
255

> <PUBCHEM_BONDANNOTATIONS>
17  1  6
24  1  5
35  10  5
37  11  6
31  16  5
18  25  5
20  2  6
26  2  5
22  41  6
23  43  5
19  3  5
34  45  5
38  49  6
39  50  5
40  47  6
28  7  5
29  8  6
33  9  5

$$$$
