33887
  -OEChem-05242006112D

 64 67  0     0  0  0  0  0  0999 V2000
    2.0000   -0.7500    0.0000 F   0  0  0  0  0  0  0  0  0  0  0  0
    5.4641    5.2500    0.0000 F   0  0  0  0  0  0  0  0  0  0  0  0
    6.3301    0.7500    0.0000 N   0  0  0  0  0  0  0  0  0  0  0  0
    8.0622   -0.2500    0.0000 N   0  0  0  0  0  0  0  0  0  0  0  0
    8.9282   -1.7500    0.0000 N   0  0  0  0  0  0  0  0  0  0  0  0
    9.7942   -0.2500    0.0000 N   0  0  0  0  0  0  0  0  0  0  0  0
   10.6603   -1.7500    0.0000 N   0  0  0  0  0  0  0  0  0  0  0  0
    9.7942   -3.2500    0.0000 N   0  0  0  0  0  0  0  0  0  0  0  0
   11.5263   -0.2500    0.0000 N   0  0  0  0  0  0  0  0  0  0  0  0
    6.3301   -0.2500    0.0000 C   0  0  0  0  0  0  0  0  0  0  0  0
    7.1962    1.2500    0.0000 C   0  0  0  0  0  0  0  0  0  0  0  0
    5.4641    1.2500    0.0000 C   0  0  0  0  0  0  0  0  0  0  0  0
    7.1962   -0.7500    0.0000 C   0  0  0  0  0  0  0  0  0  0  0  0
    8.0622    0.7500    0.0000 C   0  0  0  0  0  0  0  0  0  0  0  0
    4.5981    0.7500    0.0000 C   0  0  0  0  0  0  0  0  0  0  0  0
    5.4641    2.2500    0.0000 C   0  0  0  0  0  0  0  0  0  0  0  0
    8.9282   -0.7500    0.0000 C   0  0  0  0  0  0  0  0  0  0  0  0
    4.5981   -0.2500    0.0000 C   0  0  0  0  0  0  0  0  0  0  0  0
    4.5981    2.7500    0.0000 C   0  0  0  0  0  0  0  0  0  0  0  0
    3.7320    1.2500    0.0000 C   0  0  0  0  0  0  0  0  0  0  0  0
    6.3301    2.7500    0.0000 C   0  0  0  0  0  0  0  0  0  0  0  0
    3.7320   -0.7500    0.0000 C   0  0  0  0  0  0  0  0  0  0  0  0
    4.5981    3.7500    0.0000 C   0  0  0  0  0  0  0  0  0  0  0  0
    2.8660    0.7500    0.0000 C   0  0  0  0  0  0  0  0  0  0  0  0
    6.3301    3.7500    0.0000 C   0  0  0  0  0  0  0  0  0  0  0  0
    2.8660   -0.2500    0.0000 C   0  0  0  0  0  0  0  0  0  0  0  0
    5.4641    4.2500    0.0000 C   0  0  0  0  0  0  0  0  0  0  0  0
    9.7942   -2.2500    0.0000 C   0  0  0  0  0  0  0  0  0  0  0  0
   10.6603   -0.7500    0.0000 C   0  0  0  0  0  0  0  0  0  0  0  0
   10.6603   -3.7500    0.0000 C   0  0  0  0  0  0  0  0  0  0  0  0
   12.3923   -0.7500    0.0000 C   0  0  0  0  0  0  0  0  0  0  0  0
   10.6603   -4.7500    0.0000 C   0  0  0  0  0  0  0  0  0  0  0  0
   13.2583   -0.2500    0.0000 C   0  0  0  0  0  0  0  0  0  0  0  0
   11.5263   -5.2500    0.0000 C   0  0  0  0  0  0  0  0  0  0  0  0
   14.1244   -0.7500    0.0000 C   0  0  0  0  0  0  0  0  0  0  0  0
    5.7196   -0.1423    0.0000 H   0  0  0  0  0  0  0  0  0  0  0  0
    6.1181   -0.8326    0.0000 H   0  0  0  0  0  0  0  0  0  0  0  0
    7.5947    1.7250    0.0000 H   0  0  0  0  0  0  0  0  0  0  0  0
    6.7976    1.7250    0.0000 H   0  0  0  0  0  0  0  0  0  0  0  0
    5.4641    0.6300    0.0000 H   0  0  0  0  0  0  0  0  0  0  0  0
    6.7976   -1.2250    0.0000 H   0  0  0  0  0  0  0  0  0  0  0  0
    7.5947   -1.2250    0.0000 H   0  0  0  0  0  0  0  0  0  0  0  0
    8.6728    0.6423    0.0000 H   0  0  0  0  0  0  0  0  0  0  0  0
    8.2742    1.3326    0.0000 H   0  0  0  0  0  0  0  0  0  0  0  0
    5.1350   -0.5600    0.0000 H   0  0  0  0  0  0  0  0  0  0  0  0
    4.0611    2.4400    0.0000 H   0  0  0  0  0  0  0  0  0  0  0  0
    3.7320    1.8700    0.0000 H   0  0  0  0  0  0  0  0  0  0  0  0
    6.8671    2.4400    0.0000 H   0  0  0  0  0  0  0  0  0  0  0  0
    3.7320   -1.3700    0.0000 H   0  0  0  0  0  0  0  0  0  0  0  0
    4.0611    4.0600    0.0000 H   0  0  0  0  0  0  0  0  0  0  0  0
    2.3291    1.0600    0.0000 H   0  0  0  0  0  0  0  0  0  0  0  0
    6.8671    4.0600    0.0000 H   0  0  0  0  0  0  0  0  0  0  0  0
    9.2573   -3.5600    0.0000 H   0  0  0  0  0  0  0  0  0  0  0  0
   11.5263    0.3700    0.0000 H   0  0  0  0  0  0  0  0  0  0  0  0
   11.2708   -3.8577    0.0000 H   0  0  0  0  0  0  0  0  0  0  0  0
   10.8723   -3.1674    0.0000 H   0  0  0  0  0  0  0  0  0  0  0  0
   11.9938   -1.2250    0.0000 H   0  0  0  0  0  0  0  0  0  0  0  0
   12.7908   -1.2250    0.0000 H   0  0  0  0  0  0  0  0  0  0  0  0
   10.1233   -5.0600    0.0000 H   0  0  0  0  0  0  0  0  0  0  0  0
   13.2583    0.3700    0.0000 H   0  0  0  0  0  0  0  0  0  0  0  0
   11.5263   -5.8700    0.0000 H   0  0  0  0  0  0  0  0  0  0  0  0
   12.0632   -4.9400    0.0000 H   0  0  0  0  0  0  0  0  0  0  0  0
   14.1244   -1.3700    0.0000 H   0  0  0  0  0  0  0  0  0  0  0  0
   14.6613   -0.4400    0.0000 H   0  0  0  0  0  0  0  0  0  0  0  0
  1 26  1  0  0  0  0
  2 27  1  0  0  0  0
  3 10  1  0  0  0  0
  3 11  1  0  0  0  0
  3 12  1  0  0  0  0
  4 13  1  0  0  0  0
  4 14  1  0  0  0  0
  4 17  1  0  0  0  0
  5 17  2  0  0  0  0
  5 28  1  0  0  0  0
  6 17  1  0  0  0  0
  6 29  2  0  0  0  0
  7 28  2  0  0  0  0
  7 29  1  0  0  0  0
  8 28  1  0  0  0  0
  8 30  1  0  0  0  0
  8 53  1  0  0  0  0
  9 29  1  0  0  0  0
  9 31  1  0  0  0  0
  9 54  1  0  0  0  0
 10 13  1  0  0  0  0
 10 36  1  0  0  0  0
 10 37  1  0  0  0  0
 11 14  1  0  0  0  0
 11 38  1  0  0  0  0
 11 39  1  0  0  0  0
 12 15  1  0  0  0  0
 12 16  1  0  0  0  0
 12 40  1  0  0  0  0
 13 41  1  0  0  0  0
 13 42  1  0  0  0  0
 14 43  1  0  0  0  0
 14 44  1  0  0  0  0
 15 18  2  0  0  0  0
 15 20  1  0  0  0  0
 16 19  2  0  0  0  0
 16 21  1  0  0  0  0
 18 22  1  0  0  0  0
 18 45  1  0  0  0  0
 19 23  1  0  0  0  0
 19 46  1  0  0  0  0
 20 24  2  0  0  0  0
 20 47  1  0  0  0  0
 21 25  2  0  0  0  0
 21 48  1  0  0  0  0
 22 26  2  0  0  0  0
 22 49  1  0  0  0  0
 23 27  2  0  0  0  0
 23 50  1  0  0  0  0
 24 26  1  0  0  0  0
 24 51  1  0  0  0  0
 25 27  1  0  0  0  0
 25 52  1  0  0  0  0
 30 32  1  0  0  0  0
 30 55  1  0  0  0  0
 30 56  1  0  0  0  0
 31 33  1  0  0  0  0
 31 57  1  0  0  0  0
 31 58  1  0  0  0  0
 32 34  2  0  0  0  0
 32 59  1  0  0  0  0
 33 35  2  0  0  0  0
 33 60  1  0  0  0  0
 34 61  1  0  0  0  0
 34 62  1  0  0  0  0
 35 63  1  0  0  0  0
 35 64  1  0  0  0  0
M  END
> <PUBCHEM_COMPOUND_CID>
33887

> <PUBCHEM_COMPOUND_CANONICALIZED>
1

> <PUBCHEM_CACTVS_COMPLEXITY>
602

> <PUBCHEM_CACTVS_HBOND_ACCEPTOR>
9

> <PUBCHEM_CACTVS_HBOND_DONOR>
2

> <PUBCHEM_CACTVS_ROTATABLE_BOND>
10

> <PUBCHEM_CACTVS_SUBSKEYS>
AAADceB7gYAAAAAAAAAAAAAAAAAAAAAAAAA8eIEAAAAAAAAB0AAAHQAQAAAADCjBGAwxEIfIEACgAiBCJACCAAkgAIAJiIAIBIiIaCKAmRGUIAhokAKIiAcQgMAOAAAAAAAAAAAAAAAAAAAAAAAAAAAAAA==

> <PUBCHEM_IUPAC_OPENEYE_NAME>
N2,N4-diallyl-6-[4-[bis(4-fluorophenyl)methyl]piperazin-1-yl]-1,3,5-triazine-2,4-diamine

> <PUBCHEM_IUPAC_CAS_NAME>
6-[4-[bis(4-fluorophenyl)methyl]-1-piperazinyl]-N2,N4-bis(prop-2-enyl)-1,3,5-triazine-2,4-diamine

> <PUBCHEM_IUPAC_NAME_MARKUP>
6-[4-[bis(4-fluorophenyl)methyl]piperazin-1-yl]-2-<I>N</I>,4-<I>N</I>-bis(prop-2-enyl)-1,3,5-triazine-2,4-diamine

> <PUBCHEM_IUPAC_NAME>
6-[4-[bis(4-fluorophenyl)methyl]piperazin-1-yl]-2-N,4-N-bis(prop-2-enyl)-1,3,5-triazine-2,4-diamine

> <PUBCHEM_IUPAC_SYSTEMATIC_NAME>
6-[4-[bis(4-fluorophenyl)methyl]piperazin-1-yl]-N2,N4-bis(prop-2-enyl)-1,3,5-triazine-2,4-diamine

> <PUBCHEM_IUPAC_TRADITIONAL_NAME>
allyl-[4-(allylamino)-6-[4-[bis(4-fluorophenyl)methyl]piperazino]-s-triazin-2-yl]amine

> <PUBCHEM_IUPAC_INCHI>
InChI=1S/C26H29F2N7/c1-3-13-29-24-31-25(30-14-4-2)33-26(32-24)35-17-15-34(16-18-35)23(19-5-9-21(27)10-6-19)20-7-11-22(28)12-8-20/h3-12,23H,1-2,13-18H2,(H2,29,30,31,32,33)

> <PUBCHEM_IUPAC_INCHIKEY>
OBDOVFRMEYHSQB-UHFFFAOYSA-N

> <PUBCHEM_XLOGP3_AA>
5.6

> <PUBCHEM_EXACT_MASS>
477.24525

> <PUBCHEM_MOLECULAR_FORMULA>
C26H29F2N7

> <PUBCHEM_MOLECULAR_WEIGHT>
477.6

> <PUBCHEM_OPENEYE_CAN_SMILES>
C=CCNC1=NC(=NC(=N1)N2CCN(CC2)C(C3=CC=C(C=C3)F)C4=CC=C(C=C4)F)NCC=C

> <PUBCHEM_OPENEYE_ISO_SMILES>
C=CCNC1=NC(=NC(=N1)N2CCN(CC2)C(C3=CC=C(C=C3)F)C4=CC=C(C=C4)F)NCC=C

> <PUBCHEM_CACTVS_TPSA>
69.2

> <PUBCHEM_MONOISOTOPIC_WEIGHT>
477.24525

> <PUBCHEM_TOTAL_CHARGE>
0

> <PUBCHEM_HEAVY_ATOM_COUNT>
35

> <PUBCHEM_ATOM_DEF_STEREO_COUNT>
0

> <PUBCHEM_ATOM_UDEF_STEREO_COUNT>
0

> <PUBCHEM_BOND_DEF_STEREO_COUNT>
0

> <PUBCHEM_BOND_UDEF_STEREO_COUNT>
0

> <PUBCHEM_ISOTOPIC_ATOM_COUNT>
0

> <PUBCHEM_COMPONENT_COUNT>
1

> <PUBCHEM_CACTVS_TAUTO_COUNT>
-1

> <PUBCHEM_COORDINATE_TYPE>
1
5
255

> <PUBCHEM_BONDANNOTATIONS>
15  18  8
15  20  8
16  19  8
16  21  8
18  22  8
19  23  8
20  24  8
21  25  8
22  26  8
23  27  8
24  26  8
25  27  8
5  17  8
5  28  8
6  17  8
6  29  8
7  28  8
7  29  8

$$$$
