40476772
  -OEChem-05242006132D

 28 29  0     0  0  0  0  0  0999 V2000
    2.5000   -3.0062    0.0000 S   0  0  0  0  0  0  0  0  0  0  0  0
    4.4487    2.6962    0.0000 O   0  0  0  0  0  0  0  0  0  0  0  0
    4.4487   -0.3038    0.0000 N   0  0  0  0  0  0  0  0  0  0  0  0
    4.4487    1.6962    0.0000 C   0  0  0  0  0  0  0  0  0  0  0  0
    3.5827    1.1962    0.0000 C   0  0  0  0  0  0  0  0  0  0  0  0
    5.3147    1.1962    0.0000 C   0  0  0  0  0  0  0  0  0  0  0  0
    3.5827    0.1962    0.0000 C   0  0  0  0  0  0  0  0  0  0  0  0
    5.3147    0.1962    0.0000 C   0  0  0  0  0  0  0  0  0  0  0  0
    4.4487   -1.3038    0.0000 C   0  0  0  0  0  0  0  0  0  0  0  0
    3.5827   -1.8038    0.0000 C   0  0  0  0  0  0  0  0  0  0  0  0
    2.6691   -1.3970    0.0000 C   0  0  0  0  0  0  0  0  0  0  0  0
    3.4782   -2.7983    0.0000 C   0  0  0  0  0  0  0  0  0  0  0  0
    2.0000   -2.1402    0.0000 C   0  0  0  0  0  0  0  0  0  0  0  0
    3.9118    2.0062    0.0000 H   0  0  0  0  0  0  0  0  0  0  0  0
    3.3706    1.7788    0.0000 H   0  0  0  0  0  0  0  0  0  0  0  0
    2.9721    1.0885    0.0000 H   0  0  0  0  0  0  0  0  0  0  0  0
    5.9253    1.0885    0.0000 H   0  0  0  0  0  0  0  0  0  0  0  0
    5.5268    1.7788    0.0000 H   0  0  0  0  0  0  0  0  0  0  0  0
    2.9721    0.3039    0.0000 H   0  0  0  0  0  0  0  0  0  0  0  0
    3.3706   -0.3864    0.0000 H   0  0  0  0  0  0  0  0  0  0  0  0
    5.5268   -0.3864    0.0000 H   0  0  0  0  0  0  0  0  0  0  0  0
    5.9253    0.3039    0.0000 H   0  0  0  0  0  0  0  0  0  0  0  0
    4.6608   -1.8864    0.0000 H   0  0  0  0  0  0  0  0  0  0  0  0
    5.0593   -1.1961    0.0000 H   0  0  0  0  0  0  0  0  0  0  0  0
    4.9856    3.0062    0.0000 H   0  0  0  0  0  0  0  0  0  0  0  0
    2.5402   -0.7906    0.0000 H   0  0  0  0  0  0  0  0  0  0  0  0
    3.9389   -3.2132    0.0000 H   0  0  0  0  0  0  0  0  0  0  0  0
    1.3834   -2.0754    0.0000 H   0  0  0  0  0  0  0  0  0  0  0  0
  1 12  1  0  0  0  0
  1 13  1  0  0  0  0
  2  4  1  0  0  0  0
  2 25  1  0  0  0  0
  3  7  1  0  0  0  0
  3  8  1  0  0  0  0
  3  9  1  0  0  0  0
  4  5  1  0  0  0  0
  4  6  1  0  0  0  0
  4 14  1  0  0  0  0
  5  7  1  0  0  0  0
  5 15  1  0  0  0  0
  5 16  1  0  0  0  0
  6  8  1  0  0  0  0
  6 17  1  0  0  0  0
  6 18  1  0  0  0  0
  7 19  1  0  0  0  0
  7 20  1  0  0  0  0
  8 21  1  0  0  0  0
  8 22  1  0  0  0  0
  9 10  1  0  0  0  0
  9 23  1  0  0  0  0
  9 24  1  0  0  0  0
 10 11  1  0  0  0  0
 10 12  2  0  0  0  0
 11 13  2  0  0  0  0
 11 26  1  0  0  0  0
 12 27  1  0  0  0  0
 13 28  1  0  0  0  0
M  END
> <PUBCHEM_COMPOUND_CID>
40476772

> <PUBCHEM_COMPOUND_CANONICALIZED>
1

> <PUBCHEM_CACTVS_COMPLEXITY>
157

> <PUBCHEM_CACTVS_HBOND_ACCEPTOR>
3

> <PUBCHEM_CACTVS_HBOND_DONOR>
1

> <PUBCHEM_CACTVS_ROTATABLE_BOND>
2

> <PUBCHEM_CACTVS_SUBSKEYS>
AAADccByIABAAAAAAAAAAAAAAAAAASAAAAAsAAAAAAAAAAABgAAAHgQACAAADBTl2AawAYMAAgiEAiBCAACDAIAgCBBIiBgIBIgIMAIggQEEQAhCAACgAAAQAAAIAAAAAAAAAAAAAAAAAAAAAAAAAAAAAA==

> <PUBCHEM_IUPAC_OPENEYE_NAME>
1-(3-thienylmethyl)piperidin-4-ol

> <PUBCHEM_IUPAC_CAS_NAME>
1-(3-thiophenylmethyl)-4-piperidinol

> <PUBCHEM_IUPAC_NAME_MARKUP>
1-(thiophen-3-ylmethyl)piperidin-4-ol

> <PUBCHEM_IUPAC_NAME>
1-(thiophen-3-ylmethyl)piperidin-4-ol

> <PUBCHEM_IUPAC_SYSTEMATIC_NAME>
1-(thiophen-3-ylmethyl)piperidin-4-ol

> <PUBCHEM_IUPAC_TRADITIONAL_NAME>
1-(3-thenyl)piperidin-4-ol

> <PUBCHEM_IUPAC_INCHI>
InChI=1S/C10H15NOS/c12-10-1-4-11(5-2-10)7-9-3-6-13-8-9/h3,6,8,10,12H,1-2,4-5,7H2

> <PUBCHEM_IUPAC_INCHIKEY>
JQJVNJKLFUBEBG-UHFFFAOYSA-N

> <PUBCHEM_XLOGP3_AA>
1.3

> <PUBCHEM_EXACT_MASS>
197.087435

> <PUBCHEM_MOLECULAR_FORMULA>
C10H15NOS

> <PUBCHEM_MOLECULAR_WEIGHT>
197.3

> <PUBCHEM_OPENEYE_CAN_SMILES>
C1CN(CCC1O)CC2=CSC=C2

> <PUBCHEM_OPENEYE_ISO_SMILES>
C1CN(CCC1O)CC2=CSC=C2

> <PUBCHEM_CACTVS_TPSA>
51.7

> <PUBCHEM_MONOISOTOPIC_WEIGHT>
197.087435

> <PUBCHEM_TOTAL_CHARGE>
0

> <PUBCHEM_HEAVY_ATOM_COUNT>
13

> <PUBCHEM_ATOM_DEF_STEREO_COUNT>
0

> <PUBCHEM_ATOM_UDEF_STEREO_COUNT>
0

> <PUBCHEM_BOND_DEF_STEREO_COUNT>
0

> <PUBCHEM_BOND_UDEF_STEREO_COUNT>
0

> <PUBCHEM_ISOTOPIC_ATOM_COUNT>
0

> <PUBCHEM_COMPONENT_COUNT>
1

> <PUBCHEM_CACTVS_TAUTO_COUNT>
-1

> <PUBCHEM_COORDINATE_TYPE>
1
5
255

> <PUBCHEM_BONDANNOTATIONS>
1  12  8
1  13  8
10  11  8
10  12  8
11  13  8

$$$$
