409423
  -OEChem-05242006122D

 30 31  0     1  0  0  0  0  0999 V2000
    3.7320    1.1276    0.0000 N   0  0  3  0  0  0  0  0  0  0  0  0
    5.5443   -1.6771    0.0000 N   0  0  0  0  0  0  0  0  0  0  0  0
    2.8660   -0.3724    0.0000 N   0  0  0  0  0  0  0  0  0  0  0  0
    6.1279   -0.8724    0.0000 N   0  0  0  0  0  0  0  0  0  0  0  0
    3.7320   -1.8724    0.0000 N   0  0  0  0  0  0  0  0  0  0  0  0
    2.8660    1.6276    0.0000 C   0  0  0  0  0  0  0  0  0  0  0  0
    3.7320    0.1276    0.0000 C   0  0  0  0  0  0  0  0  0  0  0  0
    4.5981   -0.3724    0.0000 C   0  0  0  0  0  0  0  0  0  0  0  0
    2.8660    2.6276    0.0000 C   0  0  0  0  0  0  0  0  0  0  0  0
    2.0000    1.1276    0.0000 C   0  0  0  0  0  0  0  0  0  0  0  0
    4.5981   -1.3724    0.0000 C   0  0  0  0  0  0  0  0  0  0  0  0
    4.5981    1.6276    0.0000 C   0  0  0  0  0  0  0  0  0  0  0  0
    5.5443   -0.0676    0.0000 C   0  0  0  0  0  0  0  0  0  0  0  0
    2.8660   -1.3724    0.0000 C   0  0  0  0  0  0  0  0  0  0  0  0
    5.8550   -2.6276    0.0000 C   0  0  0  0  0  0  0  0  0  0  0  0
    2.8660    1.0076    0.0000 H   0  0  0  0  0  0  0  0  0  0  0  0
    3.4860    2.6276    0.0000 H   0  0  0  0  0  0  0  0  0  0  0  0
    2.8660    3.2476    0.0000 H   0  0  0  0  0  0  0  0  0  0  0  0
    2.2460    2.6276    0.0000 H   0  0  0  0  0  0  0  0  0  0  0  0
    1.6900    1.6646    0.0000 H   0  0  0  0  0  0  0  0  0  0  0  0
    1.4631    0.8176    0.0000 H   0  0  0  0  0  0  0  0  0  0  0  0
    2.3100    0.5907    0.0000 H   0  0  0  0  0  0  0  0  0  0  0  0
    4.9081    1.0907    0.0000 H   0  0  0  0  0  0  0  0  0  0  0  0
    5.1350    1.9376    0.0000 H   0  0  0  0  0  0  0  0  0  0  0  0
    4.2881    2.1646    0.0000 H   0  0  0  0  0  0  0  0  0  0  0  0
    5.7369    0.5217    0.0000 H   0  0  0  0  0  0  0  0  0  0  0  0
    2.3291   -1.6824    0.0000 H   0  0  0  0  0  0  0  0  0  0  0  0
    5.2656   -2.8202    0.0000 H   0  0  0  0  0  0  0  0  0  0  0  0
    6.0476   -3.2170    0.0000 H   0  0  0  0  0  0  0  0  0  0  0  0
    6.4443   -2.4350    0.0000 H   0  0  0  0  0  0  0  0  0  0  0  0
  1  6  1  0  0  0  0
  1  7  1  0  0  0  0
  1 12  1  0  0  0  0
  2  4  1  0  0  0  0
  2 11  1  0  0  0  0
  2 15  1  0  0  0  0
  3  7  2  0  0  0  0
  3 14  1  0  0  0  0
  4 13  2  0  0  0  0
  5 11  1  0  0  0  0
  5 14  2  0  0  0  0
  6  9  1  0  0  0  0
  6 10  1  0  0  0  0
  6 16  1  0  0  0  0
  7  8  1  0  0  0  0
  8 11  2  0  0  0  0
  8 13  1  0  0  0  0
  9 17  1  0  0  0  0
  9 18  1  0  0  0  0
  9 19  1  0  0  0  0
 10 20  1  0  0  0  0
 10 21  1  0  0  0  0
 10 22  1  0  0  0  0
 12 23  1  0  0  0  0
 12 24  1  0  0  0  0
 12 25  1  0  0  0  0
 13 26  1  0  0  0  0
 14 27  1  0  0  0  0
 15 28  1  0  0  0  0
 15 29  1  0  0  0  0
 15 30  1  0  0  0  0
M  END
> <PUBCHEM_COMPOUND_CID>
409423

> <PUBCHEM_COMPOUND_CANONICALIZED>
1

> <PUBCHEM_CACTVS_COMPLEXITY>
220

> <PUBCHEM_CACTVS_HBOND_ACCEPTOR>
4

> <PUBCHEM_CACTVS_HBOND_DONOR>
0

> <PUBCHEM_CACTVS_ROTATABLE_BOND>
2

> <PUBCHEM_CACTVS_SUBSKEYS>
AAADccBzgAAAAAAAAAAAAAAAAAAAAWAAAAAsAAAAAAAAAFgB+AAAHAAIAAAADCjBGwQvsN8IEACiAhJnZACQhCsRgKAVUCAoRBCACIBASEAEhAgICALAACAAAAAAAAAAAAAAAAAAAAAAAAAAAAAAAAAAAA==

> <PUBCHEM_IUPAC_OPENEYE_NAME>
N-isopropyl-N,1-dimethyl-pyrazolo[3,4-d]pyrimidin-4-amine

> <PUBCHEM_IUPAC_CAS_NAME>
N,1-dimethyl-N-propan-2-yl-4-pyrazolo[3,4-d]pyrimidinamine

> <PUBCHEM_IUPAC_NAME_MARKUP>
<I>N</I>,1-dimethyl-<I>N</I>-propan-2-ylpyrazolo[3,4-d]pyrimidin-4-amine

> <PUBCHEM_IUPAC_NAME>
N,1-dimethyl-N-propan-2-ylpyrazolo[3,4-d]pyrimidin-4-amine

> <PUBCHEM_IUPAC_SYSTEMATIC_NAME>
N,1-dimethyl-N-propan-2-yl-pyrazolo[3,4-d]pyrimidin-4-amine

> <PUBCHEM_IUPAC_TRADITIONAL_NAME>
isopropyl-methyl-(1-methylpyrazolo[3,4-d]pyrimidin-4-yl)amine

> <PUBCHEM_IUPAC_INCHI>
InChI=1S/C10H15N5/c1-7(2)14(3)9-8-5-13-15(4)10(8)12-6-11-9/h5-7H,1-4H3

> <PUBCHEM_IUPAC_INCHIKEY>
ACQZDWVVKAKBAO-UHFFFAOYSA-N

> <PUBCHEM_XLOGP3_AA>
1.4

> <PUBCHEM_EXACT_MASS>
205.132746

> <PUBCHEM_MOLECULAR_FORMULA>
C10H15N5

> <PUBCHEM_MOLECULAR_WEIGHT>
205.26

> <PUBCHEM_OPENEYE_CAN_SMILES>
CC(C)N(C)C1=NC=NC2=C1C=NN2C

> <PUBCHEM_OPENEYE_ISO_SMILES>
CC(C)N(C)C1=NC=NC2=C1C=NN2C

> <PUBCHEM_CACTVS_TPSA>
46.8

> <PUBCHEM_MONOISOTOPIC_WEIGHT>
205.132746

> <PUBCHEM_TOTAL_CHARGE>
0

> <PUBCHEM_HEAVY_ATOM_COUNT>
15

> <PUBCHEM_ATOM_DEF_STEREO_COUNT>
0

> <PUBCHEM_ATOM_UDEF_STEREO_COUNT>
0

> <PUBCHEM_BOND_DEF_STEREO_COUNT>
0

> <PUBCHEM_BOND_UDEF_STEREO_COUNT>
0

> <PUBCHEM_ISOTOPIC_ATOM_COUNT>
0

> <PUBCHEM_COMPONENT_COUNT>
1

> <PUBCHEM_CACTVS_TAUTO_COUNT>
-1

> <PUBCHEM_COORDINATE_TYPE>
1
5
255

> <PUBCHEM_BONDANNOTATIONS>
2  11  8
2  4  8
3  14  8
3  7  8
4  13  8
5  11  8
5  14  8
7  8  8
8  11  8
8  13  8

$$$$
