439201
  -OEChem-05242006122D

149153  0     1  0  0  0  0  0999 V2000
   13.0420    2.8223    0.0000 O   0  0  0  0  0  0  0  0  0  0  0  0
   14.5945    6.1447    0.0000 O   0  0  0  0  0  0  0  0  0  0  0  0
   10.5388    5.5023    0.0000 O   0  0  0  0  0  0  0  0  0  0  0  0
    8.8755   -2.3229    0.0000 O   0  0  0  0  0  0  0  0  0  0  0  0
    9.5991   -5.1775    0.0000 O   0  0  0  0  0  0  0  0  0  0  0  0
   11.1934    0.2514    0.0000 O   0  0  0  0  0  0  0  0  0  0  0  0
   10.6582    1.8987    0.0000 O   0  0  0  0  0  0  0  0  0  0  0  0
   10.4503    0.9206    0.0000 O   0  0  0  0  0  0  0  0  0  0  0  0
    7.0010   -2.6775    0.0000 O   0  0  0  0  0  0  0  0  0  0  0  0
    3.4030   -3.6775    0.0000 O   0  0  0  0  0  0  0  0  0  0  0  0
    4.2690   -5.1775    0.0000 O   0  0  0  0  0  0  0  0  0  0  0  0
   13.0420    4.5544    0.0000 N   0  0  0  0  0  0  0  0  0  0  0  0
   15.1298    4.4974    0.0000 N   0  0  0  0  0  0  0  0  0  0  0  0
   10.5697   -2.6830    0.0000 N   0  0  0  0  0  0  0  0  0  0  0  0
   11.0740    3.8550    0.0000 N   0  0  0  0  0  0  0  0  0  0  0  0
   16.4966    6.7627    0.0000 N   0  0  0  0  0  0  0  0  0  0  0  0
    8.7331   -3.6775    0.0000 N   0  0  0  0  0  0  0  0  0  0  0  0
    9.2913   -0.3666    0.0000 N   0  0  0  0  0  0  0  0  0  0  0  0
    8.9640    2.2588    0.0000 N   0  0  0  0  0  0  0  0  0  0  0  0
   19.6771    5.0643    0.0000 N   0  0  0  0  0  0  0  0  0  0  0  0
    6.0010   -4.1775    0.0000 N   0  0  0  0  0  0  0  0  0  0  0  0
   21.3713    4.7042    0.0000 N   0  0  0  0  0  0  0  0  0  0  0  0
   20.2124    3.4170    0.0000 N   0  0  0  0  0  0  0  0  0  0  0  0
    3.4030   -0.6775    0.0000 N   0  0  0  0  0  0  0  0  0  0  0  0
    2.5369    0.8225    0.0000 N   0  0  0  0  0  0  0  0  0  0  0  0
    4.2690    0.8225    0.0000 N   0  0  0  0  0  0  0  0  0  0  0  0
   14.5420    3.6884    0.0000 C   0  0  1  0  0  0  0  0  0  0  0  0
   15.1298    2.8793    0.0000 C   0  0  0  0  0  0  0  0  0  0  0  0
   12.2330    5.1422    0.0000 C   0  0  1  0  0  0  0  0  0  0  0  0
   16.0808    3.1883    0.0000 C   0  0  0  0  0  0  0  0  0  0  0  0
   16.0808    4.1884    0.0000 C   0  0  0  0  0  0  0  0  0  0  0  0
   12.5420    6.0932    0.0000 C   0  0  0  0  0  0  0  0  0  0  0  0
   13.8510    5.1422    0.0000 C   0  0  0  0  0  0  0  0  0  0  0  0
   13.5421    3.6884    0.0000 C   0  0  0  0  0  0  0  0  0  0  0  0
   13.5420    6.0932    0.0000 C   0  0  0  0  0  0  0  0  0  0  0  0
   15.3377    5.4755    0.0000 C   0  0  0  0  0  0  0  0  0  0  0  0
   11.2819    4.8331    0.0000 C   0  0  0  0  0  0  0  0  0  0  0  0
   16.2887    5.7845    0.0000 C   0  0  2  0  0  0  0  0  0  0  0  0
   10.4651   -3.6775    0.0000 C   0  0  1  0  0  0  0  0  0  0  0  0
   17.0319    5.1154    0.0000 C   0  0  0  0  0  0  0  0  0  0  0  0
   11.3787   -4.0843    0.0000 C   0  0  0  0  0  0  0  0  0  0  0  0
   12.0478   -3.3411    0.0000 C   0  0  0  0  0  0  0  0  0  0  0  0
   11.5478   -2.4751    0.0000 C   0  0  0  0  0  0  0  0  0  0  0  0
   17.9829    5.4244    0.0000 C   0  0  0  0  0  0  0  0  0  0  0  0
   10.1229    3.5460    0.0000 C   0  0  0  0  0  0  0  0  0  0  0  0
    9.8265   -2.0139    0.0000 C   0  0  0  0  0  0  0  0  0  0  0  0
    9.5991   -4.1775    0.0000 C   0  0  0  0  0  0  0  0  0  0  0  0
   10.0344   -1.0357    0.0000 C   0  0  2  0  0  0  0  0  0  0  0  0
   18.7261    4.7553    0.0000 C   0  0  0  0  0  0  0  0  0  0  0  0
    9.9150    2.5678    0.0000 C   0  0  0  0  0  0  0  0  0  0  0  0
    7.8671   -4.1775    0.0000 C   0  0  1  0  0  0  0  0  0  0  0  0
    8.7561    1.2807    0.0000 C   0  0  2  0  0  0  0  0  0  0  0  0
   10.9855   -0.7267    0.0000 C   0  0  0  0  0  0  0  0  0  0  0  0
    9.4992    0.6115    0.0000 C   0  0  0  0  0  0  0  0  0  0  0  0
    7.8671   -5.1775    0.0000 C   0  0  0  0  0  0  0  0  0  0  0  0
    7.8050    0.9716    0.0000 C   0  0  0  0  0  0  0  0  0  0  0  0
    7.0010   -3.6775    0.0000 C   0  0  0  0  0  0  0  0  0  0  0  0
    7.0010   -5.6775    0.0000 C   0  0  0  0  0  0  0  0  0  0  0  0
    7.0618    1.6408    0.0000 C   0  0  0  0  0  0  0  0  0  0  0  0
    5.1350   -3.6775    0.0000 C   0  0  1  0  0  0  0  0  0  0  0  0
   20.4203    4.3952    0.0000 C   0  0  0  0  0  0  0  0  0  0  0  0
    5.1350   -2.6775    0.0000 C   0  0  0  0  0  0  0  0  0  0  0  0
    6.1350   -5.1775    0.0000 C   0  0  0  0  0  0  0  0  0  0  0  0
    7.0010   -6.6775    0.0000 C   0  0  0  0  0  0  0  0  0  0  0  0
    7.2698    2.6189    0.0000 C   0  0  0  0  0  0  0  0  0  0  0  0
    6.1108    1.3318    0.0000 C   0  0  0  0  0  0  0  0  0  0  0  0
    4.2690   -2.1775    0.0000 C   0  0  0  0  0  0  0  0  0  0  0  0
    4.2690   -4.1775    0.0000 C   0  0  0  0  0  0  0  0  0  0  0  0
    5.2690   -5.6775    0.0000 C   0  0  0  0  0  0  0  0  0  0  0  0
    6.1350   -7.1775    0.0000 C   0  0  0  0  0  0  0  0  0  0  0  0
    5.2690   -6.6775    0.0000 C   0  0  0  0  0  0  0  0  0  0  0  0
    6.5266    3.2881    0.0000 C   0  0  0  0  0  0  0  0  0  0  0  0
    5.3676    2.0009    0.0000 C   0  0  0  0  0  0  0  0  0  0  0  0
    4.2690   -1.1775    0.0000 C   0  0  0  0  0  0  0  0  0  0  0  0
    5.5756    2.9790    0.0000 C   0  0  0  0  0  0  0  0  0  0  0  0
    3.4030    0.3225    0.0000 C   0  0  0  0  0  0  0  0  0  0  0  0
   14.2605    4.2408    0.0000 H   0  0  0  0  0  0  0  0  0  0  0  0
   14.5928    2.5693    0.0000 H   0  0  0  0  0  0  0  0  0  0  0  0
   15.3819    2.3129    0.0000 H   0  0  0  0  0  0  0  0  0  0  0  0
   12.1360    4.5298    0.0000 H   0  0  0  0  0  0  0  0  0  0  0  0
   16.2097    2.5819    0.0000 H   0  0  0  0  0  0  0  0  0  0  0  0
   16.6974    3.2532    0.0000 H   0  0  0  0  0  0  0  0  0  0  0  0
   16.6974    4.1235    0.0000 H   0  0  0  0  0  0  0  0  0  0  0  0
   16.2097    4.7948    0.0000 H   0  0  0  0  0  0  0  0  0  0  0  0
   12.6068    6.7098    0.0000 H   0  0  0  0  0  0  0  0  0  0  0  0
   11.9355    6.2221    0.0000 H   0  0  0  0  0  0  0  0  0  0  0  0
   14.1610    4.6052    0.0000 H   0  0  0  0  0  0  0  0  0  0  0  0
   14.4174    5.3943    0.0000 H   0  0  0  0  0  0  0  0  0  0  0  0
   14.1484    6.2221    0.0000 H   0  0  0  0  0  0  0  0  0  0  0  0
   13.4772    6.7098    0.0000 H   0  0  0  0  0  0  0  0  0  0  0  0
   15.8280    6.1994    0.0000 H   0  0  0  0  0  0  0  0  0  0  0  0
    9.9452   -3.3399    0.0000 H   0  0  0  0  0  0  0  0  0  0  0  0
   16.5433    4.7337    0.0000 H   0  0  0  0  0  0  0  0  0  0  0  0
   17.3229    4.5680    0.0000 H   0  0  0  0  0  0  0  0  0  0  0  0
   11.0687   -4.6212    0.0000 H   0  0  0  0  0  0  0  0  0  0  0  0
   11.8803   -4.4487    0.0000 H   0  0  0  0  0  0  0  0  0  0  0  0
   12.4627   -3.8019    0.0000 H   0  0  0  0  0  0  0  0  0  0  0  0
   12.5494   -2.9767    0.0000 H   0  0  0  0  0  0  0  0  0  0  0  0
   12.1142   -2.2229    0.0000 H   0  0  0  0  0  0  0  0  0  0  0  0
   11.3562   -1.8854    0.0000 H   0  0  0  0  0  0  0  0  0  0  0  0
   11.5347    3.4401    0.0000 H   0  0  0  0  0  0  0  0  0  0  0  0
   18.4715    5.8061    0.0000 H   0  0  0  0  0  0  0  0  0  0  0  0
   17.6919    5.9718    0.0000 H   0  0  0  0  0  0  0  0  0  0  0  0
   17.0863    6.9543    0.0000 H   0  0  0  0  0  0  0  0  0  0  0  0
   16.0359    7.1775    0.0000 H   0  0  0  0  0  0  0  0  0  0  0  0
   10.0366    4.1600    0.0000 H   0  0  0  0  0  0  0  0  0  0  0  0
    9.5033    3.5676    0.0000 H   0  0  0  0  0  0  0  0  0  0  0  0
   10.1633   -0.4293    0.0000 H   0  0  0  0  0  0  0  0  0  0  0  0
   18.2375    4.3736    0.0000 H   0  0  0  0  0  0  0  0  0  0  0  0
   19.0172    4.2079    0.0000 H   0  0  0  0  0  0  0  0  0  0  0  0
    8.7331   -3.0575    0.0000 H   0  0  0  0  0  0  0  0  0  0  0  0
    8.4040   -4.4875    0.0000 H   0  0  0  0  0  0  0  0  0  0  0  0
    8.7016   -0.5582    0.0000 H   0  0  0  0  0  0  0  0  0  0  0  0
    9.3457    1.4723    0.0000 H   0  0  0  0  0  0  0  0  0  0  0  0
   11.0718   -1.3407    0.0000 H   0  0  0  0  0  0  0  0  0  0  0  0
   11.6051   -0.7484    0.0000 H   0  0  0  0  0  0  0  0  0  0  0  0
    8.5032    2.6737    0.0000 H   0  0  0  0  0  0  0  0  0  0  0  0
    8.0791   -5.7602    0.0000 H   0  0  0  0  0  0  0  0  0  0  0  0
    8.4776   -5.0699    0.0000 H   0  0  0  0  0  0  0  0  0  0  0  0
    7.3164    0.5899    0.0000 H   0  0  0  0  0  0  0  0  0  0  0  0
    8.0961    0.4242    0.0000 H   0  0  0  0  0  0  0  0  0  0  0  0
    6.5380   -4.4875    0.0000 H   0  0  0  0  0  0  0  0  0  0  0  0
   11.7831    0.4430    0.0000 H   0  0  0  0  0  0  0  0  0  0  0  0
    5.6720   -3.3675    0.0000 H   0  0  0  0  0  0  0  0  0  0  0  0
    5.7456   -2.7852    0.0000 H   0  0  0  0  0  0  0  0  0  0  0  0
    5.3471   -2.0949    0.0000 H   0  0  0  0  0  0  0  0  0  0  0  0
    6.1350   -4.5575    0.0000 H   0  0  0  0  0  0  0  0  0  0  0  0
    7.5380   -6.9875    0.0000 H   0  0  0  0  0  0  0  0  0  0  0  0
    7.8594    2.8105    0.0000 H   0  0  0  0  0  0  0  0  0  0  0  0
    5.9819    0.7253    0.0000 H   0  0  0  0  0  0  0  0  0  0  0  0
    3.6584   -2.0699    0.0000 H   0  0  0  0  0  0  0  0  0  0  0  0
    4.0569   -2.7602    0.0000 H   0  0  0  0  0  0  0  0  0  0  0  0
    4.7320   -5.3675    0.0000 H   0  0  0  0  0  0  0  0  0  0  0  0
    6.1350   -7.7975    0.0000 H   0  0  0  0  0  0  0  0  0  0  0  0
    4.7320   -6.9875    0.0000 H   0  0  0  0  0  0  0  0  0  0  0  0
   21.8321    4.2893    0.0000 H   0  0  0  0  0  0  0  0  0  0  0  0
   21.5002    5.3106    0.0000 H   0  0  0  0  0  0  0  0  0  0  0  0
   20.6731    3.0022    0.0000 H   0  0  0  0  0  0  0  0  0  0  0  0
   19.6227    3.2254    0.0000 H   0  0  0  0  0  0  0  0  0  0  0  0
    6.6555    3.8945    0.0000 H   0  0  0  0  0  0  0  0  0  0  0  0
    4.7780    1.8093    0.0000 H   0  0  0  0  0  0  0  0  0  0  0  0
    4.8796   -1.2852    0.0000 H   0  0  0  0  0  0  0  0  0  0  0  0
    4.4810   -0.5949    0.0000 H   0  0  0  0  0  0  0  0  0  0  0  0
    5.1148    3.3939    0.0000 H   0  0  0  0  0  0  0  0  0  0  0  0
    2.8660   -3.9875    0.0000 H   0  0  0  0  0  0  0  0  0  0  0  0
    2.5369    1.4425    0.0000 H   0  0  0  0  0  0  0  0  0  0  0  0
    2.0000    0.5125    0.0000 H   0  0  0  0  0  0  0  0  0  0  0  0
    4.2690    1.4425    0.0000 H   0  0  0  0  0  0  0  0  0  0  0  0
    4.8059    0.5125    0.0000 H   0  0  0  0  0  0  0  0  0  0  0  0
  1 34  2  0  0  0  0
  2 36  2  0  0  0  0
  3 37  2  0  0  0  0
  4 46  2  0  0  0  0
  5 47  2  0  0  0  0
  6 53  1  0  0  0  0
  6123  1  0  0  0  0
  7 50  2  0  0  0  0
  8 54  2  0  0  0  0
  9 57  2  0  0  0  0
 10 68  1  0  0  0  0
 10145  1  0  0  0  0
 11 68  2  0  0  0  0
 12 29  1  0  0  0  0
 12 33  1  0  0  0  0
 12 34  1  0  0  0  0
 13 27  1  0  0  0  0
 13 31  1  0  0  0  0
 13 36  1  0  0  0  0
 14 39  1  0  0  0  0
 14 43  1  0  0  0  0
 14 46  1  0  0  0  0
 15 37  1  0  0  0  0
 15 45  1  0  0  0  0
 15101  1  0  0  0  0
 38 16  1  1  0  0  0
 16104  1  0  0  0  0
 16105  1  0  0  0  0
 17 47  1  0  0  0  0
 51 17  1  1  0  0  0
 17111  1  0  0  0  0
 48 18  1  1  0  0  0
 18 54  1  0  0  0  0
 18113  1  0  0  0  0
 19 50  1  0  0  0  0
 52 19  1  6  0  0  0
 19117  1  0  0  0  0
 20 49  1  0  0  0  0
 20 61  2  0  0  0  0
 21 57  1  0  0  0  0
 60 21  1  6  0  0  0
 21122  1  0  0  0  0
 22 61  1  0  0  0  0
 22136  1  0  0  0  0
 22137  1  0  0  0  0
 23 61  1  0  0  0  0
 23138  1  0  0  0  0
 23139  1  0  0  0  0
 24 74  1  0  0  0  0
 24 76  2  0  0  0  0
 25 76  1  0  0  0  0
 25146  1  0  0  0  0
 25147  1  0  0  0  0
 26 76  1  0  0  0  0
 26148  1  0  0  0  0
 26149  1  0  0  0  0
 27 28  1  0  0  0  0
 27 34  1  1  0  0  0
 27 77  1  0  0  0  0
 28 30  1  0  0  0  0
 28 78  1  0  0  0  0
 28 79  1  0  0  0  0
 29 32  1  0  0  0  0
 29 37  1  6  0  0  0
 29 80  1  0  0  0  0
 30 31  1  0  0  0  0
 30 81  1  0  0  0  0
 30 82  1  0  0  0  0
 31 83  1  0  0  0  0
 31 84  1  0  0  0  0
 32 35  1  0  0  0  0
 32 85  1  0  0  0  0
 32 86  1  0  0  0  0
 33 35  1  0  0  0  0
 33 87  1  0  0  0  0
 33 88  1  0  0  0  0
 35 89  1  0  0  0  0
 35 90  1  0  0  0  0
 36 38  1  0  0  0  0
 38 40  1  0  0  0  0
 38 91  1  0  0  0  0
 39 41  1  0  0  0  0
 39 47  1  1  0  0  0
 39 92  1  0  0  0  0
 40 44  1  0  0  0  0
 40 93  1  0  0  0  0
 40 94  1  0  0  0  0
 41 42  1  0  0  0  0
 41 95  1  0  0  0  0
 41 96  1  0  0  0  0
 42 43  1  0  0  0  0
 42 97  1  0  0  0  0
 42 98  1  0  0  0  0
 43 99  1  0  0  0  0
 43100  1  0  0  0  0
 44 49  1  0  0  0  0
 44102  1  0  0  0  0
 44103  1  0  0  0  0
 45 50  1  0  0  0  0
 45106  1  0  0  0  0
 45107  1  0  0  0  0
 46 48  1  0  0  0  0
 48 53  1  0  0  0  0
 48108  1  0  0  0  0
 49109  1  0  0  0  0
 49110  1  0  0  0  0
 51 55  1  0  0  0  0
 51 57  1  0  0  0  0
 51112  1  0  0  0  0
 52 54  1  0  0  0  0
 52 56  1  0  0  0  0
 52114  1  0  0  0  0
 53115  1  0  0  0  0
 53116  1  0  0  0  0
 55 58  1  0  0  0  0
 55118  1  0  0  0  0
 55119  1  0  0  0  0
 56 59  1  0  0  0  0
 56120  1  0  0  0  0
 56121  1  0  0  0  0
 58 63  2  0  0  0  0
 58 64  1  0  0  0  0
 59 65  2  0  0  0  0
 59 66  1  0  0  0  0
 60 62  1  0  0  0  0
 60 68  1  0  0  0  0
 60124  1  0  0  0  0
 62 67  1  0  0  0  0
 62125  1  0  0  0  0
 62126  1  0  0  0  0
 63 69  1  0  0  0  0
 63127  1  0  0  0  0
 64 70  2  0  0  0  0
 64128  1  0  0  0  0
 65 72  1  0  0  0  0
 65129  1  0  0  0  0
 66 73  2  0  0  0  0
 66130  1  0  0  0  0
 67 74  1  0  0  0  0
 67131  1  0  0  0  0
 67132  1  0  0  0  0
 69 71  2  0  0  0  0
 69133  1  0  0  0  0
 70 71  1  0  0  0  0
 70134  1  0  0  0  0
 71135  1  0  0  0  0
 72 75  2  0  0  0  0
 72140  1  0  0  0  0
 73 75  1  0  0  0  0
 73141  1  0  0  0  0
 74142  1  0  0  0  0
 74143  1  0  0  0  0
 75144  1  0  0  0  0
M  END
> <PUBCHEM_COMPOUND_CID>
439201

> <PUBCHEM_COMPOUND_CANONICALIZED>
1

> <PUBCHEM_CACTVS_COMPLEXITY>
2080

> <PUBCHEM_CACTVS_HBOND_ACCEPTOR>
14

> <PUBCHEM_CACTVS_HBOND_DONOR>
12

> <PUBCHEM_CACTVS_ROTATABLE_BOND>
27

> <PUBCHEM_CACTVS_SUBSKEYS>
AAADcfB//AAAAAAAAAAAAAAAAAAAAWLFgAAwYAAAAAAAAAABQAAAHgAQCAAADCjhmAYxCIPAAgCoAiHSPAACAAEgAAAIiIGIAIgKcDaAkTGUYAAmtgCYiAeYmYCOAAAAAAAAAAAAAAAAAAAAAAAAAAAAAA==

> <PUBCHEM_IUPAC_OPENEYE_NAME>
(2S)-2-[[(2S)-2-[[(2S)-1-[(2S)-2-[[(2S)-2-[[2-[[(2S)-1-[(2S)-1-[(2S)-2-amino-5-guanidino-pentanoyl]pyrrolidine-2-carbonyl]pyrrolidine-2-carbonyl]amino]acetyl]amino]-3-phenyl-propanoyl]amino]-3-hydroxy-propanoyl]pyrrolidine-2-carbonyl]amino]-3-phenyl-propanoyl]amino]-5-guanidino-pentanoic acid

> <PUBCHEM_IUPAC_CAS_NAME>
(2S)-2-[[(2S)-2-[[[(2S)-1-[(2S)-2-[[(2S)-2-[[2-[[[(2S)-1-[[(2S)-1-[(2S)-2-amino-5-(diaminomethylideneamino)-1-oxopentyl]-2-pyrrolidinyl]-oxomethyl]-2-pyrrolidinyl]-oxomethyl]amino]-1-oxoethyl]amino]-1-oxo-3-phenylpropyl]amino]-3-hydroxy-1-oxopropyl]-2-pyrrolidinyl]-oxomethyl]amino]-1-oxo-3-phenylpropyl]amino]-5-(diaminomethylideneamino)pentanoic acid

> <PUBCHEM_IUPAC_NAME_MARKUP>
(2<I>S</I>)-2-[[(2<I>S</I>)-2-[[(2<I>S</I>)-1-[(2<I>S</I>)-2-[[(2<I>S</I>)-2-[[2-[[(2<I>S</I>)-1-[(2<I>S</I>)-1-[(2<I>S</I>)-2-amino-5-(diaminomethylideneamino)pentanoyl]pyrrolidine-2-carbonyl]pyrrolidine-2-carbonyl]amino]acetyl]amino]-3-phenylpropanoyl]amino]-3-hydroxypropanoyl]pyrrolidine-2-carbonyl]amino]-3-phenylpropanoyl]amino]-5-(diaminomethylideneamino)pentanoic acid

> <PUBCHEM_IUPAC_NAME>
(2S)-2-[[(2S)-2-[[(2S)-1-[(2S)-2-[[(2S)-2-[[2-[[(2S)-1-[(2S)-1-[(2S)-2-amino-5-(diaminomethylideneamino)pentanoyl]pyrrolidine-2-carbonyl]pyrrolidine-2-carbonyl]amino]acetyl]amino]-3-phenylpropanoyl]amino]-3-hydroxypropanoyl]pyrrolidine-2-carbonyl]amino]-3-phenylpropanoyl]amino]-5-(diaminomethylideneamino)pentanoic acid

> <PUBCHEM_IUPAC_SYSTEMATIC_NAME>
(2S)-2-[[(2S)-2-[[(2S)-1-[(2S)-2-[[(2S)-2-[2-[[(2S)-1-[(2S)-1-[(2S)-2-azanyl-5-[bis(azanyl)methylideneamino]pentanoyl]pyrrolidin-2-yl]carbonylpyrrolidin-2-yl]carbonylamino]ethanoylamino]-3-phenyl-propanoyl]amino]-3-oxidanyl-propanoyl]pyrrolidin-2-yl]carbonylamino]-3-phenyl-propanoyl]amino]-5-[bis(azanyl)methylideneamino]pentanoic acid

> <PUBCHEM_IUPAC_TRADITIONAL_NAME>
(2S)-2-[[(2S)-2-[[(2S)-1-[(2S)-2-[[(2S)-2-[[2-[[(2S)-1-[(2S)-1-[(2S)-2-amino-5-guanidino-pentanoyl]prolyl]prolyl]amino]acetyl]amino]-3-phenyl-propanoyl]amino]-3-hydroxy-propanoyl]prolyl]amino]-3-phenyl-propanoyl]amino]-5-guanidino-valeric acid

> <PUBCHEM_IUPAC_INCHI>
InChI=1S/C50H73N15O11/c51-32(16-7-21-56-49(52)53)45(72)65-25-11-20-39(65)47(74)64-24-9-18-37(64)43(70)58-28-40(67)59-34(26-30-12-3-1-4-13-30)41(68)62-36(29-66)46(73)63-23-10-19-38(63)44(71)61-35(27-31-14-5-2-6-15-31)42(69)60-33(48(75)76)17-8-22-57-50(54)55/h1-6,12-15,32-39,66H,7-11,16-29,51H2,(H,58,70)(H,59,67)(H,60,69)(H,61,71)(H,62,68)(H,75,76)(H4,52,53,56)(H4,54,55,57)/t32-,33-,34-,35-,36-,37-,38-,39-/m0/s1

> <PUBCHEM_IUPAC_INCHIKEY>
QXZGBUJJYSLZLT-FDISYFBBSA-N

> <PUBCHEM_XLOGP3_AA>
-4.8

> <PUBCHEM_EXACT_MASS>
1059.561398

> <PUBCHEM_MOLECULAR_FORMULA>
C50H73N15O11

> <PUBCHEM_MOLECULAR_WEIGHT>
1060.2

> <PUBCHEM_OPENEYE_CAN_SMILES>
C1CC(N(C1)C(=O)C2CCCN2C(=O)C(CCCN=C(N)N)N)C(=O)NCC(=O)NC(CC3=CC=CC=C3)C(=O)NC(CO)C(=O)N4CCCC4C(=O)NC(CC5=CC=CC=C5)C(=O)NC(CCCN=C(N)N)C(=O)O

> <PUBCHEM_OPENEYE_ISO_SMILES>
C1C[C@H](N(C1)C(=O)[C@@H]2CCCN2C(=O)[C@H](CCCN=C(N)N)N)C(=O)NCC(=O)N[C@@H](CC3=CC=CC=C3)C(=O)N[C@@H](CO)C(=O)N4CCC[C@H]4C(=O)N[C@@H](CC5=CC=CC=C5)C(=O)N[C@@H](CCCN=C(N)N)C(=O)O

> <PUBCHEM_CACTVS_TPSA>
419

> <PUBCHEM_MONOISOTOPIC_WEIGHT>
1059.561398

> <PUBCHEM_TOTAL_CHARGE>
0

> <PUBCHEM_HEAVY_ATOM_COUNT>
76

> <PUBCHEM_ATOM_DEF_STEREO_COUNT>
8

> <PUBCHEM_ATOM_UDEF_STEREO_COUNT>
0

> <PUBCHEM_BOND_DEF_STEREO_COUNT>
0

> <PUBCHEM_BOND_UDEF_STEREO_COUNT>
0

> <PUBCHEM_ISOTOPIC_ATOM_COUNT>
0

> <PUBCHEM_COMPONENT_COUNT>
1

> <PUBCHEM_CACTVS_TAUTO_COUNT>
-1

> <PUBCHEM_COORDINATE_TYPE>
1
5
255

> <PUBCHEM_BONDANNOTATIONS>
38  16  5
51  17  5
48  18  5
52  19  6
60  21  6
27  34  5
29  37  6
39  47  5
58  63  8
58  64  8
59  65  8
59  66  8
63  69  8
64  70  8
65  72  8
66  73  8
69  71  8
70  71  8
72  75  8
73  75  8

$$$$
