45266664
  -OEChem-05242006132D

146149  0     1  0  0  0  0  0999 V2000
   11.4530    3.3655    0.0000 O   0  0  0  0  0  0  0  0  0  0  0  0
   12.1766    6.2202    0.0000 O   0  0  0  0  0  0  0  0  0  0  0  0
   10.7098    2.6964    0.0000 O   0  0  0  0  0  0  0  0  0  0  0  0
    8.6883   -0.2891    0.0000 O   0  0  0  0  0  0  0  0  0  0  0  0
    8.7125    5.2202    0.0000 O   0  5  0  0  0  0  0  0  0  0  0  0
    9.5785    3.7202    0.0000 O   0  0  0  0  0  0  0  0  0  0  0  0
    7.9452   -0.9583    0.0000 O   0  0  0  0  0  0  0  0  0  0  0  0
    4.7647   -2.6566    0.0000 O   0  0  0  0  0  0  0  0  0  0  0  0
    6.3395   -5.9001    0.0000 O   0  0  0  0  0  0  0  0  0  0  0  0
    3.5172    3.2122    0.0000 O   0  0  0  0  0  0  0  0  0  0  0  0
    2.0000   -6.3113    0.0000 O   0  5  0  0  0  0  0  0  0  0  0  0
    3.1590   -7.5985    0.0000 O   0  0  0  0  0  0  0  0  0  0  0  0
   13.1472    3.7256    0.0000 N   0  0  0  0  0  0  0  0  0  0  0  0
   11.8688    1.4092    0.0000 N   0  0  0  0  0  0  0  0  0  0  0  0
   11.3106    4.7202    0.0000 N   0  0  0  0  0  0  0  0  0  0  0  0
    9.2235    1.3581    0.0000 N   0  0  0  0  0  0  0  0  0  0  0  0
   13.1018    0.0481    0.0000 N   0  0  0  0  0  0  0  0  0  0  0  0
    6.7862    0.3289    0.0000 N   0  0  0  0  0  0  0  0  0  0  0  0
    6.4589   -2.2965    0.0000 N   0  0  0  0  0  0  0  0  0  0  0  0
   14.5799   -0.6101    0.0000 N   0  0  0  0  0  0  0  0  0  0  0  0
    5.1805   -4.6129    0.0000 N   0  0  0  0  0  0  0  0  0  0  0  0
    8.2416   -6.5181    0.0000 N   0  3  0  0  0  0  0  0  0  0  0  0
    4.8532   -7.2384    0.0000 N   0  3  0  0  0  0  0  0  0  0  0  0
    9.4005   -7.8053    0.0000 N   0  0  0  0  0  0  0  0  0  0  0  0
    9.9358   -6.1580    0.0000 N   0  0  0  0  0  0  0  0  0  0  0  0
   13.0426    4.7202    0.0000 C   0  0  1  0  0  0  0  0  0  0  0  0
   13.9562    5.1269    0.0000 C   0  0  0  0  0  0  0  0  0  0  0  0
   14.6253    4.3838    0.0000 C   0  0  0  0  0  0  0  0  0  0  0  0
   14.1253    3.5177    0.0000 C   0  0  0  0  0  0  0  0  0  0  0  0
   12.4040    3.0565    0.0000 C   0  0  0  0  0  0  0  0  0  0  0  0
   12.6119    2.0784    0.0000 C   0  0  2  0  0  0  0  0  0  0  0  0
   12.1766    5.2202    0.0000 C   0  0  0  0  0  0  0  0  0  0  0  0
   13.5630    1.7694    0.0000 C   0  0  0  0  0  0  0  0  0  0  0  0
   10.1746    1.0491    0.0000 C   0  0  1  0  0  0  0  0  0  0  0  0
   10.3825    0.0710    0.0000 C   0  0  2  0  0  0  0  0  0  0  0  0
   10.9177    1.7182    0.0000 C   0  0  0  0  0  0  0  0  0  0  0  0
   10.4446    5.2202    0.0000 C   0  0  1  0  0  0  0  0  0  0  0  0
   13.7709    0.7912    0.0000 C   0  0  0  0  0  0  0  0  0  0  0  0
    9.6394   -0.5982    0.0000 C   0  0  0  0  0  0  0  0  0  0  0  0
   10.4446    6.2202    0.0000 C   0  0  0  0  0  0  0  0  0  0  0  0
   11.3336   -0.2380    0.0000 C   0  0  0  0  0  0  0  0  0  0  0  0
    7.5293    0.9980    0.0000 C   0  0  2  0  0  0  0  0  0  0  0  0
    8.4804    0.6890    0.0000 C   0  0  0  0  0  0  0  0  0  0  0  0
    9.5785    4.7202    0.0000 C   0  0  0  0  0  0  0  0  0  0  0  0
    9.8473   -1.5763    0.0000 C   0  0  0  0  0  0  0  0  0  0  0  0
   14.6845    0.3845    0.0000 C   0  0  0  0  0  0  0  0  0  0  0  0
    6.2510   -1.3184    0.0000 C   0  0  1  0  0  0  0  0  0  0  0  0
    7.3214    1.9762    0.0000 C   0  0  0  0  0  0  0  0  0  0  0  0
    9.5785    6.7202    0.0000 C   0  0  0  0  0  0  0  0  0  0  0  0
    5.2999   -1.0094    0.0000 C   0  0  0  0  0  0  0  0  0  0  0  0
    6.9941   -0.6493    0.0000 C   0  0  0  0  0  0  0  0  0  0  0  0
   13.6018   -0.8180    0.0000 C   0  0  0  0  0  0  0  0  0  0  0  0
    5.9236   -3.9438    0.0000 C   0  0  2  0  0  0  0  0  0  0  0  0
    6.3704    2.2852    0.0000 C   0  0  0  0  0  0  0  0  0  0  0  0
    4.5568   -1.6785    0.0000 C   0  0  0  0  0  0  0  0  0  0  0  0
    5.0920   -0.0312    0.0000 C   0  0  0  0  0  0  0  0  0  0  0  0
    5.7157   -2.9657    0.0000 C   0  0  0  0  0  0  0  0  0  0  0  0
    9.5785    7.7202    0.0000 C   0  0  0  0  0  0  0  0  0  0  0  0
    8.7125    6.2202    0.0000 C   0  0  0  0  0  0  0  0  0  0  0  0
    6.8747   -4.2528    0.0000 C   0  0  0  0  0  0  0  0  0  0  0  0
    7.0826   -5.2310    0.0000 C   0  0  0  0  0  0  0  0  0  0  0  0
    5.6272    1.6161    0.0000 C   0  0  0  0  0  0  0  0  0  0  0  0
    6.1625    3.2633    0.0000 C   0  0  0  0  0  0  0  0  0  0  0  0
    8.7125    8.2202    0.0000 C   0  0  0  0  0  0  0  0  0  0  0  0
    7.8465    6.7202    0.0000 C   0  0  0  0  0  0  0  0  0  0  0  0
    8.0337   -5.5400    0.0000 C   0  0  0  0  0  0  0  0  0  0  0  0
    7.8465    7.7202    0.0000 C   0  0  0  0  0  0  0  0  0  0  0  0
    5.3884   -5.5911    0.0000 C   0  0  0  0  0  0  0  0  0  0  0  0
    4.6453   -6.2602    0.0000 C   0  0  2  0  0  0  0  0  0  0  0  0
    4.6762    1.9251    0.0000 C   0  0  0  0  0  0  0  0  0  0  0  0
    5.2114    3.5724    0.0000 C   0  0  0  0  0  0  0  0  0  0  0  0
    4.4682    2.9032    0.0000 C   0  0  0  0  0  0  0  0  0  0  0  0
    3.6942   -5.9512    0.0000 C   0  0  0  0  0  0  0  0  0  0  0  0
    9.1926   -6.8272    0.0000 C   0  0  0  0  0  0  0  0  0  0  0  0
    2.9511   -6.6203    0.0000 C   0  0  0  0  0  0  0  0  0  0  0  0
   12.5227    4.3825    0.0000 H   0  0  0  0  0  0  0  0  0  0  0  0
   14.4578    5.4913    0.0000 H   0  0  0  0  0  0  0  0  0  0  0  0
   13.6462    5.6638    0.0000 H   0  0  0  0  0  0  0  0  0  0  0  0
   15.1269    4.0193    0.0000 H   0  0  0  0  0  0  0  0  0  0  0  0
   15.0402    4.8445    0.0000 H   0  0  0  0  0  0  0  0  0  0  0  0
   13.9337    2.9281    0.0000 H   0  0  0  0  0  0  0  0  0  0  0  0
   14.6917    3.2656    0.0000 H   0  0  0  0  0  0  0  0  0  0  0  0
   12.0223    2.2700    0.0000 H   0  0  0  0  0  0  0  0  0  0  0  0
   14.1826    1.7910    0.0000 H   0  0  0  0  0  0  0  0  0  0  0  0
   13.6493    2.3833    0.0000 H   0  0  0  0  0  0  0  0  0  0  0  0
   11.9977    0.8028    0.0000 H   0  0  0  0  0  0  0  0  0  0  0  0
   10.0457    1.6556    0.0000 H   0  0  0  0  0  0  0  0  0  0  0  0
   11.3106    4.1002    0.0000 H   0  0  0  0  0  0  0  0  0  0  0  0
   10.8433    0.4858    0.0000 H   0  0  0  0  0  0  0  0  0  0  0  0
   10.9815    5.5302    0.0000 H   0  0  0  0  0  0  0  0  0  0  0  0
    9.3108   -0.0724    0.0000 H   0  0  0  0  0  0  0  0  0  0  0  0
    9.0645   -0.8304    0.0000 H   0  0  0  0  0  0  0  0  0  0  0  0
    9.0946    1.9646    0.0000 H   0  0  0  0  0  0  0  0  0  0  0  0
   11.0551    6.1125    0.0000 H   0  0  0  0  0  0  0  0  0  0  0  0
   10.6566    6.8028    0.0000 H   0  0  0  0  0  0  0  0  0  0  0  0
   11.1420   -0.8277    0.0000 H   0  0  0  0  0  0  0  0  0  0  0  0
   11.9232   -0.4296    0.0000 H   0  0  0  0  0  0  0  0  0  0  0  0
   11.5252    0.3516    0.0000 H   0  0  0  0  0  0  0  0  0  0  0  0
    7.6582    0.3916    0.0000 H   0  0  0  0  0  0  0  0  0  0  0  0
   12.4852    0.1129    0.0000 H   0  0  0  0  0  0  0  0  0  0  0  0
    9.2408   -1.7052    0.0000 H   0  0  0  0  0  0  0  0  0  0  0  0
    9.9762   -2.1828    0.0000 H   0  0  0  0  0  0  0  0  0  0  0  0
   10.4537   -1.4474    0.0000 H   0  0  0  0  0  0  0  0  0  0  0  0
   15.2214    0.6945    0.0000 H   0  0  0  0  0  0  0  0  0  0  0  0
    6.8406   -1.5100    0.0000 H   0  0  0  0  0  0  0  0  0  0  0  0
    7.9410    1.9978    0.0000 H   0  0  0  0  0  0  0  0  0  0  0  0
    7.4077    2.5901    0.0000 H   0  0  0  0  0  0  0  0  0  0  0  0
    5.7606   -0.5945    0.0000 H   0  0  0  0  0  0  0  0  0  0  0  0
    6.1965    0.5205    0.0000 H   0  0  0  0  0  0  0  0  0  0  0  0
   13.3496   -1.3844    0.0000 H   0  0  0  0  0  0  0  0  0  0  0  0
    7.0485   -2.4881    0.0000 H   0  0  0  0  0  0  0  0  0  0  0  0
    6.0525   -4.5503    0.0000 H   0  0  0  0  0  0  0  0  0  0  0  0
    4.1419   -1.2178    0.0000 H   0  0  0  0  0  0  0  0  0  0  0  0
    4.0960   -2.0934    0.0000 H   0  0  0  0  0  0  0  0  0  0  0  0
    4.9716   -2.1392    0.0000 H   0  0  0  0  0  0  0  0  0  0  0  0
    5.6984    0.0977    0.0000 H   0  0  0  0  0  0  0  0  0  0  0  0
    4.9631    0.5752    0.0000 H   0  0  0  0  0  0  0  0  0  0  0  0
    4.4855   -0.1601    0.0000 H   0  0  0  0  0  0  0  0  0  0  0  0
    7.4943   -4.2312    0.0000 H   0  0  0  0  0  0  0  0  0  0  0  0
    6.9610   -3.6389    0.0000 H   0  0  0  0  0  0  0  0  0  0  0  0
   10.1155    8.0302    0.0000 H   0  0  0  0  0  0  0  0  0  0  0  0
    8.7125    5.6002    0.0000 H   0  0  0  0  0  0  0  0  0  0  0  0
    6.4630   -5.2526    0.0000 H   0  0  0  0  0  0  0  0  0  0  0  0
    6.9963   -5.8449    0.0000 H   0  0  0  0  0  0  0  0  0  0  0  0
    4.5908   -4.4214    0.0000 H   0  0  0  0  0  0  0  0  0  0  0  0
    5.7561    1.0096    0.0000 H   0  0  0  0  0  0  0  0  0  0  0  0
    6.6232    3.6782    0.0000 H   0  0  0  0  0  0  0  0  0  0  0  0
    8.7125    8.8402    0.0000 H   0  0  0  0  0  0  0  0  0  0  0  0
    7.3096    6.4102    0.0000 H   0  0  0  0  0  0  0  0  0  0  0  0
    8.6533   -5.5184    0.0000 H   0  0  0  0  0  0  0  0  0  0  0  0
    8.1200   -4.9260    0.0000 H   0  0  0  0  0  0  0  0  0  0  0  0
    7.3096    8.0302    0.0000 H   0  0  0  0  0  0  0  0  0  0  0  0
    5.2349   -6.4518    0.0000 H   0  0  0  0  0  0  0  0  0  0  0  0
    4.2154    1.5102    0.0000 H   0  0  0  0  0  0  0  0  0  0  0  0
    5.0825    4.1788    0.0000 H   0  0  0  0  0  0  0  0  0  0  0  0
    3.9853   -5.4038    0.0000 H   0  0  0  0  0  0  0  0  0  0  0  0
    3.2056   -5.5695    0.0000 H   0  0  0  0  0  0  0  0  0  0  0  0
    7.7808   -6.9330    0.0000 H   0  0  0  0  0  0  0  0  0  0  0  0
    4.9821   -7.8448    0.0000 H   0  0  0  0  0  0  0  0  0  0  0  0
    4.2467   -7.3673    0.0000 H   0  0  0  0  0  0  0  0  0  0  0  0
    5.4596   -7.1095    0.0000 H   0  0  0  0  0  0  0  0  0  0  0  0
    3.0564    2.7974    0.0000 H   0  0  0  0  0  0  0  0  0  0  0  0
    9.9902   -7.9969    0.0000 H   0  0  0  0  0  0  0  0  0  0  0  0
    8.9398   -8.2202    0.0000 H   0  0  0  0  0  0  0  0  0  0  0  0
   10.5254   -6.3496    0.0000 H   0  0  0  0  0  0  0  0  0  0  0  0
    9.8069   -5.5516    0.0000 H   0  0  0  0  0  0  0  0  0  0  0  0
  1 30  2  0  0  0  0
  2 32  2  0  0  0  0
  3 36  2  0  0  0  0
  4 43  2  0  0  0  0
  5 44  1  0  0  0  0
  6 44  2  0  0  0  0
  7 51  2  0  0  0  0
  8 57  2  0  0  0  0
  9 68  2  0  0  0  0
 10 72  1  0  0  0  0
 10142  1  0  0  0  0
 11 75  1  0  0  0  0
 12 75  2  0  0  0  0
 13 26  1  0  0  0  0
 13 29  1  0  0  0  0
 13 30  1  0  0  0  0
 31 14  1  6  0  0  0
 14 36  1  0  0  0  0
 14 86  1  0  0  0  0
 15 32  1  0  0  0  0
 37 15  1  6  0  0  0
 15 88  1  0  0  0  0
 34 16  1  6  0  0  0
 16 43  1  0  0  0  0
 16 93  1  0  0  0  0
 17 38  1  0  0  0  0
 17 52  1  0  0  0  0
 17100  1  0  0  0  0
 42 18  1  1  0  0  0
 18 51  1  0  0  0  0
 18109  1  0  0  0  0
 47 19  1  1  0  0  0
 19 57  1  0  0  0  0
 19111  1  0  0  0  0
 20 46  1  0  0  0  0
 20 52  2  0  0  0  0
 53 21  1  6  0  0  0
 21 68  1  0  0  0  0
 21125  1  0  0  0  0
 22 66  1  0  0  0  0
 22 74  2  0  0  0  0
 22138  1  0  0  0  0
 69 23  1  1  0  0  0
 23139  1  0  0  0  0
 23140  1  0  0  0  0
 23141  1  0  0  0  0
 24 74  1  0  0  0  0
 24143  1  0  0  0  0
 24144  1  0  0  0  0
 25 74  1  0  0  0  0
 25145  1  0  0  0  0
 25146  1  0  0  0  0
 26 27  1  0  0  0  0
 26 32  1  6  0  0  0
 26 76  1  0  0  0  0
 27 28  1  0  0  0  0
 27 77  1  0  0  0  0
 27 78  1  0  0  0  0
 28 29  1  0  0  0  0
 28 79  1  0  0  0  0
 28 80  1  0  0  0  0
 29 81  1  0  0  0  0
 29 82  1  0  0  0  0
 30 31  1  0  0  0  0
 31 33  1  0  0  0  0
 31 83  1  0  0  0  0
 33 38  1  0  0  0  0
 33 84  1  0  0  0  0
 33 85  1  0  0  0  0
 34 35  1  0  0  0  0
 34 36  1  0  0  0  0
 34 87  1  0  0  0  0
 35 39  1  0  0  0  0
 35 41  1  1  0  0  0
 35 89  1  0  0  0  0
 37 40  1  0  0  0  0
 37 44  1  0  0  0  0
 37 90  1  0  0  0  0
 38 46  2  0  0  0  0
 39 45  1  0  0  0  0
 39 91  1  0  0  0  0
 39 92  1  0  0  0  0
 40 49  1  0  0  0  0
 40 94  1  0  0  0  0
 40 95  1  0  0  0  0
 41 96  1  0  0  0  0
 41 97  1  0  0  0  0
 41 98  1  0  0  0  0
 42 43  1  0  0  0  0
 42 48  1  0  0  0  0
 42 99  1  0  0  0  0
 45101  1  0  0  0  0
 45102  1  0  0  0  0
 45103  1  0  0  0  0
 46104  1  0  0  0  0
 47 50  1  0  0  0  0
 47 51  1  0  0  0  0
 47105  1  0  0  0  0
 48 54  1  0  0  0  0
 48106  1  0  0  0  0
 48107  1  0  0  0  0
 49 58  2  0  0  0  0
 49 59  1  0  0  0  0
 50 55  1  0  0  0  0
 50 56  1  0  0  0  0
 50108  1  0  0  0  0
 52110  1  0  0  0  0
 53 57  1  0  0  0  0
 53 60  1  0  0  0  0
 53112  1  0  0  0  0
 54 62  2  0  0  0  0
 54 63  1  0  0  0  0
 55113  1  0  0  0  0
 55114  1  0  0  0  0
 55115  1  0  0  0  0
 56116  1  0  0  0  0
 56117  1  0  0  0  0
 56118  1  0  0  0  0
 58 64  1  0  0  0  0
 58121  1  0  0  0  0
 59 65  2  0  0  0  0
 59122  1  0  0  0  0
 60 61  1  0  0  0  0
 60119  1  0  0  0  0
 60120  1  0  0  0  0
 61 66  1  0  0  0  0
 61123  1  0  0  0  0
 61124  1  0  0  0  0
 62 70  1  0  0  0  0
 62126  1  0  0  0  0
 63 71  2  0  0  0  0
 63127  1  0  0  0  0
 64 67  2  0  0  0  0
 64128  1  0  0  0  0
 65 67  1  0  0  0  0
 65129  1  0  0  0  0
 66130  1  0  0  0  0
 66131  1  0  0  0  0
 67132  1  0  0  0  0
 68 69  1  0  0  0  0
 69 73  1  0  0  0  0
 69133  1  0  0  0  0
 70 72  2  0  0  0  0
 70134  1  0  0  0  0
 71 72  1  0  0  0  0
 71135  1  0  0  0  0
 73 75  1  0  0  0  0
 73136  1  0  0  0  0
 73137  1  0  0  0  0
M  CHG  4   5  -1  11  -1  22   1  23   1
M  END
> <PUBCHEM_COMPOUND_CID>
45266664

> <PUBCHEM_COMPOUND_CANONICALIZED>
1

> <PUBCHEM_CACTVS_COMPLEXITY>
1970

> <PUBCHEM_CACTVS_HBOND_ACCEPTOR>
13

> <PUBCHEM_CACTVS_HBOND_DONOR>
12

> <PUBCHEM_CACTVS_ROTATABLE_BOND>
27

> <PUBCHEM_CACTVS_SUBSKEYS>
AAADcfB//AAAAAAAAAAAAAAAAAAAAWLAAAAwYAAAAAAAAAAB0AAAHgAQCAAADSzBngQ/npfJkgCoAzX3fAACgC2xMqAJ2YG+eIiKbjrC2TOUcAAu1hPY2Ce/yaCOIAAAAAAAAABAAAAAAAAAAAAAAAAAAA==

> <PUBCHEM_IUPAC_OPENEYE_NAME>
(3S)-3-azaniumyl-4-[[(1S)-1-[[(1S)-1-[[(1S)-2-[[(1S,2S)-1-[[(1S)-2-[(2S)-2-[[(1S)-1-carboxylato-2-phenyl-ethyl]carbamoyl]pyrrolidin-1-yl]-1-(1H-imidazol-5-ylmethyl)-2-oxo-ethyl]carbamoyl]-2-methyl-butyl]amino]-1-[(4-hydroxyphenyl)methyl]-2-oxo-ethyl]carbamoyl]-2-methyl-propyl]carbamoyl]-4-(diaminomethyleneammonio)butyl]amino]-4-oxo-butanoate

> <PUBCHEM_IUPAC_CAS_NAME>
(3S)-3-ammonio-4-[[(2S)-1-[[(2S)-1-[[(2S)-1-[[(2S,3S)-1-[[(2S)-1-[(2S)-2-[[[(1S)-1-carboxylato-2-phenylethyl]amino]-oxomethyl]-1-pyrrolidinyl]-3-(1H-imidazol-5-yl)-1-oxopropan-2-yl]amino]-3-methyl-1-oxopentan-2-yl]amino]-3-(4-hydroxyphenyl)-1-oxopropan-2-yl]amino]-3-methyl-1-oxobutan-2-yl]amino]-5-(diaminomethylideneammonio)-1-oxopentan-2-yl]amino]-4-oxobutanoate

> <PUBCHEM_IUPAC_NAME_MARKUP>
(3<I>S</I>)-3-azaniumyl-4-[[(2<I>S</I>)-1-[[(2<I>S</I>)-1-[[(2<I>S</I>)-1-[[(2<I>S</I>,3<I>S</I>)-1-[[(2<I>S</I>)-1-[(2<I>S</I>)-2-[[(1<I>S</I>)-1-carboxylato-2-phenylethyl]carbamoyl]pyrrolidin-1-yl]-3-(1<I>H</I>-imidazol-5-yl)-1-oxopropan-2-yl]amino]-3-methyl-1-oxopentan-2-yl]amino]-3-(4-hydroxyphenyl)-1-oxopropan-2-yl]amino]-3-methyl-1-oxobutan-2-yl]amino]-5-(diaminomethylideneazaniumyl)-1-oxopentan-2-yl]amino]-4-oxobutanoate

> <PUBCHEM_IUPAC_NAME>
(3S)-3-azaniumyl-4-[[(2S)-1-[[(2S)-1-[[(2S)-1-[[(2S,3S)-1-[[(2S)-1-[(2S)-2-[[(1S)-1-carboxylato-2-phenylethyl]carbamoyl]pyrrolidin-1-yl]-3-(1H-imidazol-5-yl)-1-oxopropan-2-yl]amino]-3-methyl-1-oxopentan-2-yl]amino]-3-(4-hydroxyphenyl)-1-oxopropan-2-yl]amino]-3-methyl-1-oxobutan-2-yl]amino]-5-(diaminomethylideneazaniumyl)-1-oxopentan-2-yl]amino]-4-oxobutanoate

> <PUBCHEM_IUPAC_SYSTEMATIC_NAME>
(3S)-3-azaniumyl-4-[[(2S)-5-[bis(azanyl)methylideneazaniumyl]-1-[[(2S)-1-[[(2S)-3-(4-hydroxyphenyl)-1-[[(2S,3S)-1-[[(2S)-3-(1H-imidazol-5-yl)-1-[(2S)-2-[[(2S)-1-oxidanidyl-1-oxidanylidene-3-phenyl-propan-2-yl]carbamoyl]pyrrolidin-1-yl]-1-oxidanylidene-propan-2-yl]amino]-3-methyl-1-oxidanylidene-pentan-2-yl]amino]-1-oxidanylidene-propan-2-yl]amino]-3-methyl-1-oxidanylidene-butan-2-yl]amino]-1-oxidanylidene-pentan-2-yl]amino]-4-oxidanylidene-butanoate

> <PUBCHEM_IUPAC_TRADITIONAL_NAME>
(3S)-3-ammonio-4-[[(1S)-1-[[(1S)-1-[[(1S)-2-[[(1S,2S)-1-[[(1S)-2-[(2S)-2-[[(1S)-1-carboxylato-2-phenyl-ethyl]carbamoyl]pyrrolidino]-1-(1H-imidazol-5-ylmethyl)-2-keto-ethyl]carbamoyl]-2-methyl-butyl]amino]-1-(4-hydroxybenzyl)-2-keto-ethyl]carbamoyl]-2-methyl-propyl]carbamoyl]-4-(diaminomethyleneammonio)butyl]amino]-4-keto-butyrate

> <PUBCHEM_IUPAC_INCHI>
InChI=1S/C50H71N13O12/c1-5-28(4)41(47(72)59-36(23-31-25-54-26-56-31)48(73)63-20-10-14-38(63)45(70)60-37(49(74)75)22-29-11-7-6-8-12-29)62-44(69)35(21-30-15-17-32(64)18-16-30)58-46(71)40(27(2)3)61-43(68)34(13-9-19-55-50(52)53)57-42(67)33(51)24-39(65)66/h6-8,11-12,15-18,25-28,33-38,40-41,64H,5,9-10,13-14,19-24,51H2,1-4H3,(H,54,56)(H,57,67)(H,58,71)(H,59,72)(H,60,70)(H,61,68)(H,62,69)(H,65,66)(H,74,75)(H4,52,53,55)/t28-,33-,34-,35-,36-,37-,38-,40-,41-/m0/s1

> <PUBCHEM_IUPAC_INCHIKEY>
CZGUSIXMZVURDU-JZXHSEFVSA-N

> <PUBCHEM_XLOGP3_AA>
-0.4

> <PUBCHEM_EXACT_MASS>
1045.534515

> <PUBCHEM_MOLECULAR_FORMULA>
C50H71N13O12

> <PUBCHEM_MOLECULAR_WEIGHT>
1046.2

> <PUBCHEM_OPENEYE_CAN_SMILES>
CCC(C)C(C(=O)NC(CC1=CN=CN1)C(=O)N2CCCC2C(=O)NC(CC3=CC=CC=C3)C(=O)[O-])NC(=O)C(CC4=CC=C(C=C4)O)NC(=O)C(C(C)C)NC(=O)C(CCC[NH+]=C(N)N)NC(=O)C(CC(=O)[O-])[NH3+]

> <PUBCHEM_OPENEYE_ISO_SMILES>
CC[C@H](C)[C@@H](C(=O)N[C@@H](CC1=CN=CN1)C(=O)N2CCC[C@H]2C(=O)N[C@@H](CC3=CC=CC=C3)C(=O)[O-])NC(=O)[C@H](CC4=CC=C(C=C4)O)NC(=O)[C@H](C(C)C)NC(=O)[C@H](CCC[NH+]=C(N)N)NC(=O)[C@H](CC(=O)[O-])[NH3+]

> <PUBCHEM_CACTVS_TPSA>
418

> <PUBCHEM_MONOISOTOPIC_WEIGHT>
1045.534515

> <PUBCHEM_TOTAL_CHARGE>
0

> <PUBCHEM_HEAVY_ATOM_COUNT>
75

> <PUBCHEM_ATOM_DEF_STEREO_COUNT>
9

> <PUBCHEM_ATOM_UDEF_STEREO_COUNT>
0

> <PUBCHEM_BOND_DEF_STEREO_COUNT>
0

> <PUBCHEM_BOND_UDEF_STEREO_COUNT>
0

> <PUBCHEM_ISOTOPIC_ATOM_COUNT>
0

> <PUBCHEM_COMPONENT_COUNT>
1

> <PUBCHEM_CACTVS_TAUTO_COUNT>
-1

> <PUBCHEM_COORDINATE_TYPE>
1
5
255

> <PUBCHEM_BONDANNOTATIONS>
31  14  6
37  15  6
34  16  6
17  38  8
17  52  8
42  18  5
47  19  5
20  46  8
20  52  8
53  21  6
69  23  5
26  32  6
35  41  5
38  46  8
49  58  8
49  59  8
54  62  8
54  63  8
58  64  8
59  65  8
62  70  8
63  71  8
64  67  8
65  67  8
70  72  8
71  72  8

$$$$
