47172017
  -OEChem-05242006132D

 30 31  0     0  0  0  0  0  0999 V2000
    3.3940    0.0062    0.0000 O   0  0  0  0  0  0  0  0  0  0  0  0
    7.8652    0.9332    0.0000 O   0  0  0  0  0  0  0  0  0  0  0  0
    3.9292   -1.6411    0.0000 N   0  0  0  0  0  0  0  0  0  0  0  0
    5.0882   -0.3540    0.0000 N   0  0  0  0  0  0  0  0  0  0  0  0
    7.0562    0.3454    0.0000 N   0  0  0  0  0  0  0  0  0  0  0  0
    2.9782   -1.9501    0.0000 C   0  0  0  0  0  0  0  0  0  0  0  0
    2.3090   -2.6933    0.0000 C   0  0  0  0  0  0  0  0  0  0  0  0
    2.0000   -1.7422    0.0000 C   0  0  0  0  0  0  0  0  0  0  0  0
    4.1371   -0.6630    0.0000 C   0  0  0  0  0  0  0  0  0  0  0  0
    5.2961    0.6242    0.0000 C   0  0  0  0  0  0  0  0  0  0  0  0
    5.8313   -1.0231    0.0000 C   0  0  0  0  0  0  0  0  0  0  0  0
    6.2471    0.9332    0.0000 C   0  0  0  0  0  0  0  0  0  0  0  0
    6.5562    1.8843    0.0000 C   0  0  0  0  0  0  0  0  0  0  0  0
    7.5562    1.8843    0.0000 C   0  0  0  0  0  0  0  0  0  0  0  0
    8.1439    2.6933    0.0000 C   0  0  0  0  0  0  0  0  0  0  0  0
    2.9457   -1.3310    0.0000 H   0  0  0  0  0  0  0  0  0  0  0  0
    1.7616   -2.9844    0.0000 H   0  0  0  0  0  0  0  0  0  0  0  0
    2.6907   -3.1818    0.0000 H   0  0  0  0  0  0  0  0  0  0  0  0
    2.0216   -1.1226    0.0000 H   0  0  0  0  0  0  0  0  0  0  0  0
    1.3860   -1.8285    0.0000 H   0  0  0  0  0  0  0  0  0  0  0  0
    4.3900   -2.0560    0.0000 H   0  0  0  0  0  0  0  0  0  0  0  0
    5.2098    1.2382    0.0000 H   0  0  0  0  0  0  0  0  0  0  0  0
    4.6765    0.6458    0.0000 H   0  0  0  0  0  0  0  0  0  0  0  0
    5.4165   -1.4838    0.0000 H   0  0  0  0  0  0  0  0  0  0  0  0
    6.2921   -1.4380    0.0000 H   0  0  0  0  0  0  0  0  0  0  0  0
    6.2462   -0.5623    0.0000 H   0  0  0  0  0  0  0  0  0  0  0  0
    6.1917    2.3859    0.0000 H   0  0  0  0  0  0  0  0  0  0  0  0
    8.6455    2.3289    0.0000 H   0  0  0  0  0  0  0  0  0  0  0  0
    8.5084    3.1949    0.0000 H   0  0  0  0  0  0  0  0  0  0  0  0
    7.6424    3.0577    0.0000 H   0  0  0  0  0  0  0  0  0  0  0  0
  1  9  2  0  0  0  0
  2  5  1  0  0  0  0
  2 14  1  0  0  0  0
  3  6  1  0  0  0  0
  3  9  1  0  0  0  0
  3 21  1  0  0  0  0
  4  9  1  0  0  0  0
  4 10  1  0  0  0  0
  4 11  1  0  0  0  0
  5 12  2  0  0  0  0
  6  7  1  0  0  0  0
  6  8  1  0  0  0  0
  6 16  1  0  0  0  0
  7  8  1  0  0  0  0
  7 17  1  0  0  0  0
  7 18  1  0  0  0  0
  8 19  1  0  0  0  0
  8 20  1  0  0  0  0
 10 12  1  0  0  0  0
 10 22  1  0  0  0  0
 10 23  1  0  0  0  0
 11 24  1  0  0  0  0
 11 25  1  0  0  0  0
 11 26  1  0  0  0  0
 12 13  1  0  0  0  0
 13 14  2  0  0  0  0
 13 27  1  0  0  0  0
 14 15  1  0  0  0  0
 15 28  1  0  0  0  0
 15 29  1  0  0  0  0
 15 30  1  0  0  0  0
M  END
> <PUBCHEM_COMPOUND_CID>
47172017

> <PUBCHEM_COMPOUND_CANONICALIZED>
1

> <PUBCHEM_CACTVS_COMPLEXITY>
243

> <PUBCHEM_CACTVS_HBOND_ACCEPTOR>
3

> <PUBCHEM_CACTVS_HBOND_DONOR>
1

> <PUBCHEM_CACTVS_ROTATABLE_BOND>
3

> <PUBCHEM_CACTVS_SUBSKEYS>
AAADccBzMAAAAAAAAAAAAAAAGAAAAWAAAAAAAAAAAAAAAAABgAAAHgAUAAAACCzBlgQzhJPQAACpAaRyUgCAAAAkIgAgGKE+bFqAZhoAgZMUEYhuFhoISUI0AAAAAAAAAAAAAAAAAAAAAAAAAAAAAAAAAA==

> <PUBCHEM_IUPAC_OPENEYE_NAME>
3-cyclopropyl-1-methyl-1-[(5-methylisoxazol-3-yl)methyl]urea

> <PUBCHEM_IUPAC_CAS_NAME>
3-cyclopropyl-1-methyl-1-[(5-methyl-3-isoxazolyl)methyl]urea

> <PUBCHEM_IUPAC_NAME_MARKUP>
3-cyclopropyl-1-methyl-1-[(5-methyl-1,2-oxazol-3-yl)methyl]urea

> <PUBCHEM_IUPAC_NAME>
3-cyclopropyl-1-methyl-1-[(5-methyl-1,2-oxazol-3-yl)methyl]urea

> <PUBCHEM_IUPAC_SYSTEMATIC_NAME>
3-cyclopropyl-1-methyl-1-[(5-methyl-1,2-oxazol-3-yl)methyl]urea

> <PUBCHEM_IUPAC_TRADITIONAL_NAME>
3-cyclopropyl-1-methyl-1-[(5-methylisoxazol-3-yl)methyl]urea

> <PUBCHEM_IUPAC_INCHI>
InChI=1S/C10H15N3O2/c1-7-5-9(12-15-7)6-13(2)10(14)11-8-3-4-8/h5,8H,3-4,6H2,1-2H3,(H,11,14)

> <PUBCHEM_IUPAC_INCHIKEY>
QKUCRJSBLDVNFL-UHFFFAOYSA-N

> <PUBCHEM_XLOGP3_AA>
0.5

> <PUBCHEM_EXACT_MASS>
209.116427

> <PUBCHEM_MOLECULAR_FORMULA>
C10H15N3O2

> <PUBCHEM_MOLECULAR_WEIGHT>
209.24

> <PUBCHEM_OPENEYE_CAN_SMILES>
CC1=CC(=NO1)CN(C)C(=O)NC2CC2

> <PUBCHEM_OPENEYE_ISO_SMILES>
CC1=CC(=NO1)CN(C)C(=O)NC2CC2

> <PUBCHEM_CACTVS_TPSA>
58.4

> <PUBCHEM_MONOISOTOPIC_WEIGHT>
209.116427

> <PUBCHEM_TOTAL_CHARGE>
0

> <PUBCHEM_HEAVY_ATOM_COUNT>
15

> <PUBCHEM_ATOM_DEF_STEREO_COUNT>
0

> <PUBCHEM_ATOM_UDEF_STEREO_COUNT>
0

> <PUBCHEM_BOND_DEF_STEREO_COUNT>
0

> <PUBCHEM_BOND_UDEF_STEREO_COUNT>
0

> <PUBCHEM_ISOTOPIC_ATOM_COUNT>
0

> <PUBCHEM_COMPONENT_COUNT>
1

> <PUBCHEM_CACTVS_TAUTO_COUNT>
-1

> <PUBCHEM_COORDINATE_TYPE>
1
5
255

> <PUBCHEM_BONDANNOTATIONS>
12  13  8
13  14  8
2  14  8
2  5  8
5  12  8

$$$$
