50905713
  -OEChem-05242006132D

 47 51  0     1  0  0  0  0  0999 V2000
    2.9176   -3.3220    0.0000 Cl  0  0  0  0  0  0  0  0  0  0  0  0
    4.6660   -3.2874    0.0000 O   0  0  0  0  0  0  0  0  0  0  0  0
    5.5321   -1.7874    0.0000 N   0  0  0  0  0  0  0  0  0  0  0  0
    6.3981    0.7126    0.0000 N   0  0  0  0  0  0  0  0  0  0  0  0
    6.5271    2.8796    0.0000 N   0  0  0  0  0  0  0  0  0  0  0  0
    8.1301    0.7126    0.0000 N   0  0  0  0  0  0  0  0  0  0  0  0
    7.9209    3.6844    0.0000 N   0  0  0  0  0  0  0  0  0  0  0  0
    8.9962    2.2126    0.0000 N   0  0  0  0  0  0  0  0  0  0  0  0
    6.3981   -0.2874    0.0000 C   0  0  2  0  0  0  0  0  0  0  0  0
    5.5321   -0.7874    0.0000 C   0  0  0  0  0  0  0  0  0  0  0  0
    4.6660   -0.2874    0.0000 C   0  0  0  0  0  0  0  0  0  0  0  0
    3.8000   -0.7874    0.0000 C   0  0  0  0  0  0  0  0  0  0  0  0
    3.8000   -1.7874    0.0000 C   0  0  0  0  0  0  0  0  0  0  0  0
    4.6660   -2.2874    0.0000 C   0  0  0  0  0  0  0  0  0  0  0  0
    7.2641   -0.7874    0.0000 C   0  0  0  0  0  0  0  0  0  0  0  0
    6.3981   -2.2874    0.0000 C   0  0  0  0  0  0  0  0  0  0  0  0
    7.2641    1.2126    0.0000 C   0  0  0  0  0  0  0  0  0  0  0  0
    2.9061   -0.2528    0.0000 C   0  0  0  0  0  0  0  0  0  0  0  0
    2.9061   -2.3221    0.0000 C   0  0  0  0  0  0  0  0  0  0  0  0
    7.2641    2.2126    0.0000 C   0  0  0  0  0  0  0  0  0  0  0  0
    6.3981   -3.2874    0.0000 C   0  0  0  0  0  0  0  0  0  0  0  0
    7.2641   -1.7874    0.0000 C   0  0  0  0  0  0  0  0  0  0  0  0
    2.0000   -0.7666    0.0000 C   0  0  0  0  0  0  0  0  0  0  0  0
    2.0000   -1.8082    0.0000 C   0  0  0  0  0  0  0  0  0  0  0  0
    8.1301    2.7126    0.0000 C   0  0  0  0  0  0  0  0  0  0  0  0
    7.2641   -3.7874    0.0000 C   0  0  0  0  0  0  0  0  0  0  0  0
    8.1301   -2.2874    0.0000 C   0  0  0  0  0  0  0  0  0  0  0  0
    8.1301   -3.2874    0.0000 C   0  0  0  0  0  0  0  0  0  0  0  0
    6.9322    3.7874    0.0000 C   0  0  0  0  0  0  0  0  0  0  0  0
    8.9962    1.2126    0.0000 C   0  0  0  0  0  0  0  0  0  0  0  0
    6.9350    0.0226    0.0000 H   0  0  0  0  0  0  0  0  0  0  0  0
    4.6660    0.3326    0.0000 H   0  0  0  0  0  0  0  0  0  0  0  0
    5.8612    1.0226    0.0000 H   0  0  0  0  0  0  0  0  0  0  0  0
    6.9541   -1.3244    0.0000 H   0  0  0  0  0  0  0  0  0  0  0  0
    7.8010   -1.0974    0.0000 H   0  0  0  0  0  0  0  0  0  0  0  0
    7.5741   -0.2505    0.0000 H   0  0  0  0  0  0  0  0  0  0  0  0
    2.9132    0.3672    0.0000 H   0  0  0  0  0  0  0  0  0  0  0  0
    5.8612   -3.5974    0.0000 H   0  0  0  0  0  0  0  0  0  0  0  0
    7.2641   -1.1674    0.0000 H   0  0  0  0  0  0  0  0  0  0  0  0
    1.4643   -0.4546    0.0000 H   0  0  0  0  0  0  0  0  0  0  0  0
    1.4643   -2.1203    0.0000 H   0  0  0  0  0  0  0  0  0  0  0  0
    7.2641   -4.4074    0.0000 H   0  0  0  0  0  0  0  0  0  0  0  0
    8.6671   -1.9774    0.0000 H   0  0  0  0  0  0  0  0  0  0  0  0
    5.9204    2.7518    0.0000 H   0  0  0  0  0  0  0  0  0  0  0  0
    8.6671   -3.5974    0.0000 H   0  0  0  0  0  0  0  0  0  0  0  0
    6.6222    4.3244    0.0000 H   0  0  0  0  0  0  0  0  0  0  0  0
    9.5331    0.9026    0.0000 H   0  0  0  0  0  0  0  0  0  0  0  0
  1 19  1  0  0  0  0
  2 14  2  0  0  0  0
  3 10  1  0  0  0  0
  3 14  1  0  0  0  0
  3 16  1  0  0  0  0
  9  4  1  1  0  0  0
  4 17  1  0  0  0  0
  4 33  1  0  0  0  0
  5 20  1  0  0  0  0
  5 29  1  0  0  0  0
  5 44  1  0  0  0  0
  6 17  2  0  0  0  0
  6 30  1  0  0  0  0
  7 25  1  0  0  0  0
  7 29  2  0  0  0  0
  8 25  1  0  0  0  0
  8 30  2  0  0  0  0
  9 10  1  0  0  0  0
  9 15  1  0  0  0  0
  9 31  1  0  0  0  0
 10 11  2  0  0  0  0
 11 12  1  0  0  0  0
 11 32  1  0  0  0  0
 12 13  2  0  0  0  0
 12 18  1  0  0  0  0
 13 14  1  0  0  0  0
 13 19  1  0  0  0  0
 15 34  1  0  0  0  0
 15 35  1  0  0  0  0
 15 36  1  0  0  0  0
 16 21  2  0  0  0  0
 16 22  1  0  0  0  0
 17 20  1  0  0  0  0
 18 23  2  0  0  0  0
 18 37  1  0  0  0  0
 19 24  2  0  0  0  0
 20 25  2  0  0  0  0
 21 26  1  0  0  0  0
 21 38  1  0  0  0  0
 22 27  2  0  0  0  0
 22 39  1  0  0  0  0
 23 24  1  0  0  0  0
 23 40  1  0  0  0  0
 24 41  1  0  0  0  0
 26 28  2  0  0  0  0
 26 42  1  0  0  0  0
 27 28  1  0  0  0  0
 27 43  1  0  0  0  0
 28 45  1  0  0  0  0
 29 46  1  0  0  0  0
 30 47  1  0  0  0  0
M  END
> <PUBCHEM_COMPOUND_CID>
50905713

> <PUBCHEM_COMPOUND_CANONICALIZED>
1

> <PUBCHEM_CACTVS_COMPLEXITY>
668

> <PUBCHEM_CACTVS_HBOND_ACCEPTOR>
5

> <PUBCHEM_CACTVS_HBOND_DONOR>
2

> <PUBCHEM_CACTVS_ROTATABLE_BOND>
4

> <PUBCHEM_CACTVS_SUBSKEYS>
AAADceB7oAAEAAAAAAAAAAAAAAAAAWAAAAA8YIEAAAAAAFiB/AAAHgIQAAAADCrBnyQ38L/JkACoAydzdACCgC21F6AJ2aEodtiIaDLB39GUJQholALIzScYiICOgAAAIAARAAAAAABAACIAAAAAAAAAAA==

> <PUBCHEM_IUPAC_OPENEYE_NAME>
8-chloro-2-phenyl-3-[(1S)-1-(7H-purin-6-ylamino)ethyl]isoquinolin-1-one

> <PUBCHEM_IUPAC_CAS_NAME>
8-chloro-2-phenyl-3-[(1S)-1-(7H-purin-6-ylamino)ethyl]-1-isoquinolinone

> <PUBCHEM_IUPAC_NAME_MARKUP>
8-chloro-2-phenyl-3-[(1<I>S</I>)-1-(7<I>H</I>-purin-6-ylamino)ethyl]isoquinolin-1-one

> <PUBCHEM_IUPAC_NAME>
8-chloro-2-phenyl-3-[(1S)-1-(7H-purin-6-ylamino)ethyl]isoquinolin-1-one

> <PUBCHEM_IUPAC_SYSTEMATIC_NAME>
8-chloranyl-2-phenyl-3-[(1S)-1-(7H-purin-6-ylamino)ethyl]isoquinolin-1-one

> <PUBCHEM_IUPAC_TRADITIONAL_NAME>
8-chloro-2-phenyl-3-[(1S)-1-(7H-purin-6-ylamino)ethyl]isocarbostyril

> <PUBCHEM_IUPAC_INCHI>
InChI=1S/C22H17ClN6O/c1-13(28-21-19-20(25-11-24-19)26-12-27-21)17-10-14-6-5-9-16(23)18(14)22(30)29(17)15-7-3-2-4-8-15/h2-13H,1H3,(H2,24,25,26,27,28)/t13-/m0/s1

> <PUBCHEM_IUPAC_INCHIKEY>
SJVQHLPISAIATJ-ZDUSSCGKSA-N

> <PUBCHEM_XLOGP3_AA>
4.1

> <PUBCHEM_EXACT_MASS>
416.115237

> <PUBCHEM_MOLECULAR_FORMULA>
C22H17ClN6O

> <PUBCHEM_MOLECULAR_WEIGHT>
416.9

> <PUBCHEM_OPENEYE_CAN_SMILES>
CC(C1=CC2=C(C(=CC=C2)Cl)C(=O)N1C3=CC=CC=C3)NC4=NC=NC5=C4NC=N5

> <PUBCHEM_OPENEYE_ISO_SMILES>
C[C@@H](C1=CC2=C(C(=CC=C2)Cl)C(=O)N1C3=CC=CC=C3)NC4=NC=NC5=C4NC=N5

> <PUBCHEM_CACTVS_TPSA>
86.8

> <PUBCHEM_MONOISOTOPIC_WEIGHT>
416.115237

> <PUBCHEM_TOTAL_CHARGE>
0

> <PUBCHEM_HEAVY_ATOM_COUNT>
30

> <PUBCHEM_ATOM_DEF_STEREO_COUNT>
1

> <PUBCHEM_ATOM_UDEF_STEREO_COUNT>
0

> <PUBCHEM_BOND_DEF_STEREO_COUNT>
0

> <PUBCHEM_BOND_UDEF_STEREO_COUNT>
0

> <PUBCHEM_ISOTOPIC_ATOM_COUNT>
0

> <PUBCHEM_COMPONENT_COUNT>
1

> <PUBCHEM_CACTVS_TAUTO_COUNT>
-1

> <PUBCHEM_COORDINATE_TYPE>
1
5
255

> <PUBCHEM_BONDANNOTATIONS>
10  11  8
11  12  8
12  13  8
12  18  8
13  14  8
13  19  8
16  21  8
16  22  8
17  20  8
18  23  8
19  24  8
20  25  8
21  26  8
22  27  8
23  24  8
26  28  8
27  28  8
3  10  8
3  14  8
9  4  5
5  20  8
5  29  8
6  17  8
6  30  8
7  25  8
7  29  8
8  25  8
8  30  8

$$$$
