5311180
  -OEChem-05242006122D

 61 61  0     0  0  0  0  0  0999 V2000
    6.6298    4.9515    0.0000 S   0  0  0  0  0  0  0  0  0  0  0  0
    6.6298    1.0369    0.0000 S   0  0  0  0  0  0  0  0  0  0  0  0
    6.6651   11.1632    0.0000 O   0  0  0  0  0  0  0  0  0  0  0  0
    7.5369    9.6666    0.0000 O   0  0  0  0  0  0  0  0  0  0  0  0
    7.4958    5.4515    0.0000 O   0  0  0  0  0  0  0  0  0  0  0  0
    7.4958    1.5369    0.0000 O   0  0  0  0  0  0  0  0  0  0  0  0
    6.1298    5.8175    0.0000 O   0  0  0  0  0  0  0  0  0  0  0  0
    7.1298    4.0854    0.0000 O   0  0  0  0  0  0  0  0  0  0  0  0
    6.1298    1.9030    0.0000 O   0  0  0  0  0  0  0  0  0  0  0  0
    7.1298    0.1709    0.0000 O   0  0  0  0  0  0  0  0  0  0  0  0
    0.5369    9.6390    0.0000 N   0  0  0  0  0  0  0  0  0  0  0  0
    1.4030    8.1390    0.0000 N   0  0  0  0  0  0  0  0  0  0  0  0
   10.9895   12.6799    0.0000 N   0  0  0  0  0  0  0  0  0  0  0  0
   12.7215   12.6866    0.0000 N   0  0  0  0  0  0  0  0  0  0  0  0
   11.8613   11.1832    0.0000 N   0  0  0  0  0  0  0  0  0  0  0  0
    4.0010    9.6390    0.0000 C   0  0  0  0  0  0  0  0  0  0  0  0
    4.0010   10.6391    0.0000 C   0  0  0  0  0  0  0  0  0  0  0  0
    3.1350    9.1390    0.0000 C   0  0  0  0  0  0  0  0  0  0  0  0
    4.8950   11.1737    0.0000 C   0  0  0  0  0  0  0  0  0  0  0  0
    2.2690    9.6390    0.0000 C   0  0  0  0  0  0  0  0  0  0  0  0
    3.1350   11.1391    0.0000 C   0  0  0  0  0  0  0  0  0  0  0  0
    4.8950    9.1044    0.0000 C   0  0  0  0  0  0  0  0  0  0  0  0
    5.8010   10.6599    0.0000 C   0  0  0  0  0  0  0  0  0  0  0  0
    2.2690   10.6391    0.0000 C   0  0  0  0  0  0  0  0  0  0  0  0
    5.8010    9.6182    0.0000 C   0  0  0  0  0  0  0  0  0  0  0  0
    1.4030    9.1390    0.0000 C   0  0  0  0  0  0  0  0  0  0  0  0
    8.3972   11.1699    0.0000 C   0  0  0  0  0  0  0  0  0  0  0  0
    7.5331   10.6665    0.0000 C   0  0  0  0  0  0  0  0  0  0  0  0
    8.3933   12.1699    0.0000 C   0  0  0  0  0  0  0  0  0  0  0  0
    9.2651   10.6732    0.0000 C   0  0  0  0  0  0  0  0  0  0  0  0
   10.1254   12.1765    0.0000 C   0  0  0  0  0  0  0  0  0  0  0  0
    9.2574   12.6732    0.0000 C   0  0  0  0  0  0  0  0  0  0  0  0
   10.1292   11.1766    0.0000 C   0  0  0  0  0  0  0  0  0  0  0  0
   11.8574   12.1832    0.0000 C   0  0  0  0  0  0  0  0  0  0  0  0
    5.7638    4.4515    0.0000 C   0  0  0  0  0  0  0  0  0  0  0  0
    5.7638    0.5369    0.0000 C   0  0  0  0  0  0  0  0  0  0  0  0
    3.1350    8.5190    0.0000 H   0  0  0  0  0  0  0  0  0  0  0  0
    4.8878   11.7937    0.0000 H   0  0  0  0  0  0  0  0  0  0  0  0
    3.1350   11.7591    0.0000 H   0  0  0  0  0  0  0  0  0  0  0  0
    4.8878    8.4844    0.0000 H   0  0  0  0  0  0  0  0  0  0  0  0
    1.7320   10.9490    0.0000 H   0  0  0  0  0  0  0  0  0  0  0  0
    6.3368    9.3062    0.0000 H   0  0  0  0  0  0  0  0  0  0  0  0
    7.8552   12.4778    0.0000 H   0  0  0  0  0  0  0  0  0  0  0  0
    9.2675   10.0532    0.0000 H   0  0  0  0  0  0  0  0  0  0  0  0
    9.2550   13.2932    0.0000 H   0  0  0  0  0  0  0  0  0  0  0  0
   10.6673   10.8686    0.0000 H   0  0  0  0  0  0  0  0  0  0  0  0
    0.0000    9.3290    0.0000 H   0  0  0  0  0  0  0  0  0  0  0  0
    0.5369   10.2591    0.0000 H   0  0  0  0  0  0  0  0  0  0  0  0
    0.8660    7.8290    0.0000 H   0  0  0  0  0  0  0  0  0  0  0  0
   13.2596   12.3786    0.0000 H   0  0  0  0  0  0  0  0  0  0  0  0
   12.7191   13.3066    0.0000 H   0  0  0  0  0  0  0  0  0  0  0  0
   12.3994   10.8753    0.0000 H   0  0  0  0  0  0  0  0  0  0  0  0
   11.3255   10.8712    0.0000 H   0  0  0  0  0  0  0  0  0  0  0  0
    5.4538    4.9884    0.0000 H   0  0  0  0  0  0  0  0  0  0  0  0
    5.2268    4.1415    0.0000 H   0  0  0  0  0  0  0  0  0  0  0  0
    6.0738    3.9145    0.0000 H   0  0  0  0  0  0  0  0  0  0  0  0
    5.4538    1.0739    0.0000 H   0  0  0  0  0  0  0  0  0  0  0  0
    5.2268    0.2269    0.0000 H   0  0  0  0  0  0  0  0  0  0  0  0
    6.0738    0.0000    0.0000 H   0  0  0  0  0  0  0  0  0  0  0  0
    8.0328    5.1415    0.0000 H   0  0  0  0  0  0  0  0  0  0  0  0
    8.0328    1.2269    0.0000 H   0  0  0  0  0  0  0  0  0  0  0  0
  1  5  1  0  0  0  0
  1  7  2  0  0  0  0
  1  8  2  0  0  0  0
  1 35  1  0  0  0  0
  2  6  1  0  0  0  0
  2  9  2  0  0  0  0
  2 10  2  0  0  0  0
  2 36  1  0  0  0  0
  3 23  1  0  0  0  0
  3 28  1  0  0  0  0
  4 28  2  0  0  0  0
  5 60  1  0  0  0  0
  6 61  1  0  0  0  0
 11 26  1  0  0  0  0
 11 47  1  0  0  0  0
 11 48  1  0  0  0  0
 12 26  2  0  0  0  0
 12 49  1  0  0  0  0
 13 31  1  0  0  0  0
 13 34  2  0  0  0  0
 14 34  1  0  0  0  0
 14 50  1  0  0  0  0
 14 51  1  0  0  0  0
 15 34  1  0  0  0  0
 15 52  1  0  0  0  0
 15 53  1  0  0  0  0
 16 17  2  0  0  0  0
 16 18  1  0  0  0  0
 16 22  1  0  0  0  0
 17 19  1  0  0  0  0
 17 21  1  0  0  0  0
 18 20  2  0  0  0  0
 18 37  1  0  0  0  0
 19 23  2  0  0  0  0
 19 38  1  0  0  0  0
 20 24  1  0  0  0  0
 20 26  1  0  0  0  0
 21 24  2  0  0  0  0
 21 39  1  0  0  0  0
 22 25  2  0  0  0  0
 22 40  1  0  0  0  0
 23 25  1  0  0  0  0
 24 41  1  0  0  0  0
 25 42  1  0  0  0  0
 27 28  1  0  0  0  0
 27 29  2  0  0  0  0
 27 30  1  0  0  0  0
 29 32  1  0  0  0  0
 29 43  1  0  0  0  0
 30 33  2  0  0  0  0
 30 44  1  0  0  0  0
 31 32  2  0  0  0  0
 31 33  1  0  0  0  0
 32 45  1  0  0  0  0
 33 46  1  0  0  0  0
 35 54  1  0  0  0  0
 35 55  1  0  0  0  0
 35 56  1  0  0  0  0
 36 57  1  0  0  0  0
 36 58  1  0  0  0  0
 36 59  1  0  0  0  0
M  END
> <PUBCHEM_COMPOUND_CID>
5311180

> <PUBCHEM_COMPOUND_CANONICALIZED>
1

> <PUBCHEM_CACTVS_COMPLEXITY>
645

> <PUBCHEM_CACTVS_HBOND_ACCEPTOR>
10

> <PUBCHEM_CACTVS_HBOND_DONOR>
6

> <PUBCHEM_CACTVS_ROTATABLE_BOND>
5

> <PUBCHEM_CACTVS_SUBSKEYS>
AAADceB7vABgAAAAAAAAAAAAAAAAAAAAAAAwYMAAAAAAAADBVAAAHgQQCAAADAyBmACzzsJABIKoAibybHCCCAGkIgAIiAEmbNgMJrKEtZuCOyDkwBEI6YeY2fGe6AADAAAQAADQAAYAACAAAAAAAAAAAA==

> <PUBCHEM_IUPAC_OPENEYE_NAME>
(6-carbamimidoyl-2-naphthyl) 4-guanidinobenzoate;methanesulfonic acid

> <PUBCHEM_IUPAC_CAS_NAME>
4-(diaminomethylideneamino)benzoic acid (6-carbamimidoyl-2-naphthalenyl) ester;methanesulfonic acid

> <PUBCHEM_IUPAC_NAME_MARKUP>
(6-carbamimidoylnaphthalen-2-yl) 4-(diaminomethylideneamino)benzoate;methanesulfonic acid

> <PUBCHEM_IUPAC_NAME>
(6-carbamimidoylnaphthalen-2-yl) 4-(diaminomethylideneamino)benzoate;methanesulfonic acid

> <PUBCHEM_IUPAC_SYSTEMATIC_NAME>
(6-carbamimidoylnaphthalen-2-yl) 4-[bis(azanyl)methylideneamino]benzoate;methanesulfonic acid

> <PUBCHEM_IUPAC_TRADITIONAL_NAME>
4-guanidinobenzoic acid (6-amidino-2-naphthyl) ester;mesylic acid

> <PUBCHEM_IUPAC_INCHI>
InChI=1S/C19H17N5O2.2CH4O3S/c20-17(21)14-2-1-13-10-16(8-5-12(13)9-14)26-18(25)11-3-6-15(7-4-11)24-19(22)23;2*1-5(2,3)4/h1-10H,(H3,20,21)(H4,22,23,24);2*1H3,(H,2,3,4)

> <PUBCHEM_IUPAC_INCHIKEY>
SRXKIZXIRHMPFW-UHFFFAOYSA-N

> <PUBCHEM_EXACT_MASS>
539.114455

> <PUBCHEM_MOLECULAR_FORMULA>
C21H25N5O8S2

> <PUBCHEM_MOLECULAR_WEIGHT>
539.6

> <PUBCHEM_OPENEYE_CAN_SMILES>
CS(=O)(=O)O.CS(=O)(=O)O.C1=CC(=CC=C1C(=O)OC2=CC3=C(C=C2)C=C(C=C3)C(=N)N)N=C(N)N

> <PUBCHEM_OPENEYE_ISO_SMILES>
CS(=O)(=O)O.CS(=O)(=O)O.C1=CC(=CC=C1C(=O)OC2=CC3=C(C=C2)C=C(C=C3)C(=N)N)N=C(N)N

> <PUBCHEM_CACTVS_TPSA>
266

> <PUBCHEM_MONOISOTOPIC_WEIGHT>
539.114455

> <PUBCHEM_TOTAL_CHARGE>
0

> <PUBCHEM_HEAVY_ATOM_COUNT>
36

> <PUBCHEM_ATOM_DEF_STEREO_COUNT>
0

> <PUBCHEM_ATOM_UDEF_STEREO_COUNT>
0

> <PUBCHEM_BOND_DEF_STEREO_COUNT>
0

> <PUBCHEM_BOND_UDEF_STEREO_COUNT>
0

> <PUBCHEM_ISOTOPIC_ATOM_COUNT>
0

> <PUBCHEM_COMPONENT_COUNT>
3

> <PUBCHEM_CACTVS_TAUTO_COUNT>
-1

> <PUBCHEM_COORDINATE_TYPE>
1
5
255

> <PUBCHEM_BONDANNOTATIONS>
16  17  8
16  18  8
16  22  8
17  19  8
17  21  8
18  20  8
19  23  8
20  24  8
21  24  8
22  25  8
23  25  8
27  29  8
27  30  8
29  32  8
30  33  8
31  32  8
31  33  8

$$$$
