53361968
  -OEChem-05242006102D

105111  0     1  0  0  0  0  0999 V2000
   12.8499    0.2676    0.0000 S   0  0  0  0  0  0  0  0  0  0  0  0
    9.3056    0.4629    0.0000 S   0  0  0  0  0  0  0  0  0  0  0  0
    4.6095    5.0017    0.0000 O   0  0  0  0  0  0  0  0  0  0  0  0
    2.8037    5.5839    0.0000 O   0  0  0  0  0  0  0  0  0  0  0  0
    4.1095    2.4629    0.0000 O   0  0  0  0  0  0  0  0  0  0  0  0
    6.7075    1.9629    0.0000 O   0  0  0  0  0  0  0  0  0  0  0  0
    5.8415    2.4629    0.0000 O   0  0  0  0  0  0  0  0  0  0  0  0
    8.8056   -0.4032    0.0000 O   0  0  0  0  0  0  0  0  0  0  0  0
    9.8056    1.3289    0.0000 O   0  0  0  0  0  0  0  0  0  0  0  0
   15.9335   -3.1352    0.0000 N   0  0  0  0  0  0  0  0  0  0  0  0
   14.4335   -0.5371    0.0000 N   0  0  0  0  0  0  0  0  0  0  0  0
    4.9755    0.9629    0.0000 N   0  0  0  0  0  0  0  0  0  0  0  0
   12.8499   -1.3419    0.0000 N   0  0  0  0  0  0  0  0  0  0  0  0
    8.4396    0.9629    0.0000 N   0  0  3  0  0  0  0  0  0  0  0  0
   16.4335   -4.0012    0.0000 C   0  0  0  0  0  0  0  0  0  0  0  0
   16.0268   -4.9148    0.0000 C   0  0  0  0  0  0  0  0  0  0  0  0
   17.4280   -4.1058    0.0000 C   0  0  0  0  0  0  0  0  0  0  0  0
   16.7699   -5.5839    0.0000 C   0  0  0  0  0  0  0  0  0  0  0  0
   17.6360   -5.0839    0.0000 C   0  0  0  0  0  0  0  0  0  0  0  0
   14.9335   -3.1352    0.0000 C   0  0  0  0  0  0  0  0  0  0  0  0
   16.4335   -2.2692    0.0000 C   0  0  0  0  0  0  0  0  0  0  0  0
   14.9335   -1.4032    0.0000 C   0  0  0  0  0  0  0  0  0  0  0  0
   14.4335   -2.2692    0.0000 C   0  0  0  0  0  0  0  0  0  0  0  0
   15.9335   -1.4032    0.0000 C   0  0  0  0  0  0  0  0  0  0  0  0
    3.3004    4.0506    0.0000 C   0  0  2  0  0  0  0  0  0  0  0  0
    3.6095    5.0017    0.0000 C   0  0  1  0  0  0  0  0  0  0  0  0
    4.1095    3.4629    0.0000 C   0  0  2  0  0  0  0  0  0  0  0  0
    2.3064    4.0532    0.0000 C   0  0  0  0  0  0  0  0  0  0  0  0
    4.9185    4.0506    0.0000 C   0  0  0  0  0  0  0  0  0  0  0  0
    2.0000    4.9989    0.0000 C   0  0  0  0  0  0  0  0  0  0  0  0
   13.4335   -0.5371    0.0000 C   0  0  0  0  0  0  0  0  0  0  0  0
    4.9755    1.9629    0.0000 C   0  0  0  0  0  0  0  0  0  0  0  0
    5.8415    0.4629    0.0000 C   0  0  2  0  0  0  0  0  0  0  0  0
    6.7075    0.9629    0.0000 C   0  0  1  0  0  0  0  0  0  0  0  0
    7.5736    0.4629    0.0000 C   0  0  0  0  0  0  0  0  0  0  0  0
    5.8415   -0.5371    0.0000 C   0  0  0  0  0  0  0  0  0  0  0  0
   11.9037   -0.0371    0.0000 C   0  0  0  0  0  0  0  0  0  0  0  0
   11.9037   -1.0371    0.0000 C   0  0  0  0  0  0  0  0  0  0  0  0
    8.4396    1.9629    0.0000 C   0  0  0  0  0  0  0  0  0  0  0  0
   10.1716   -0.0371    0.0000 C   0  0  0  0  0  0  0  0  0  0  0  0
   11.0377    0.4629    0.0000 C   0  0  0  0  0  0  0  0  0  0  0  0
    9.3056    2.4629    0.0000 C   0  0  0  0  0  0  0  0  0  0  0  0
   11.0377   -1.5371    0.0000 C   0  0  0  0  0  0  0  0  0  0  0  0
    4.9755   -1.0371    0.0000 C   0  0  0  0  0  0  0  0  0  0  0  0
   10.1716   -1.0371    0.0000 C   0  0  0  0  0  0  0  0  0  0  0  0
    9.3056    3.4629    0.0000 C   0  0  0  0  0  0  0  0  0  0  0  0
   10.1716    1.9629    0.0000 C   0  0  0  0  0  0  0  0  0  0  0  0
    4.1095   -0.5371    0.0000 C   0  0  0  0  0  0  0  0  0  0  0  0
    4.9755   -2.0371    0.0000 C   0  0  0  0  0  0  0  0  0  0  0  0
    3.2434   -1.0371    0.0000 C   0  0  0  0  0  0  0  0  0  0  0  0
    4.1095   -2.5371    0.0000 C   0  0  0  0  0  0  0  0  0  0  0  0
    3.2434   -2.0371    0.0000 C   0  0  0  0  0  0  0  0  0  0  0  0
   15.8144   -4.0337    0.0000 H   0  0  0  0  0  0  0  0  0  0  0  0
   15.4898   -4.6048    0.0000 H   0  0  0  0  0  0  0  0  0  0  0  0
   15.6624   -5.4164    0.0000 H   0  0  0  0  0  0  0  0  0  0  0  0
   18.0446   -4.0410    0.0000 H   0  0  0  0  0  0  0  0  0  0  0  0
   17.4280   -3.4858    0.0000 H   0  0  0  0  0  0  0  0  0  0  0  0
   16.3092   -5.9988    0.0000 H   0  0  0  0  0  0  0  0  0  0  0  0
   17.1344   -6.0855    0.0000 H   0  0  0  0  0  0  0  0  0  0  0  0
   17.8881   -5.6503    0.0000 H   0  0  0  0  0  0  0  0  0  0  0  0
   18.2256   -4.8923    0.0000 H   0  0  0  0  0  0  0  0  0  0  0  0
   14.3509   -3.3473    0.0000 H   0  0  0  0  0  0  0  0  0  0  0  0
   15.0412   -3.7458    0.0000 H   0  0  0  0  0  0  0  0  0  0  0  0
   16.9085   -2.6677    0.0000 H   0  0  0  0  0  0  0  0  0  0  0  0
   16.9085   -1.8707    0.0000 H   0  0  0  0  0  0  0  0  0  0  0  0
   14.3135   -1.4032    0.0000 H   0  0  0  0  0  0  0  0  0  0  0  0
   13.9586   -1.8707    0.0000 H   0  0  0  0  0  0  0  0  0  0  0  0
   13.9586   -2.6677    0.0000 H   0  0  0  0  0  0  0  0  0  0  0  0
   16.5161   -1.1911    0.0000 H   0  0  0  0  0  0  0  0  0  0  0  0
   15.8259   -0.7926    0.0000 H   0  0  0  0  0  0  0  0  0  0  0  0
    3.0367    3.2426    0.0000 H   0  0  0  0  0  0  0  0  0  0  0  0
    3.8711    5.8104    0.0000 H   0  0  0  0  0  0  0  0  0  0  0  0
    3.5570    3.1814    0.0000 H   0  0  0  0  0  0  0  0  0  0  0  0
    1.6997    3.9252    0.0000 H   0  0  0  0  0  0  0  0  0  0  0  0
    2.3699    3.4365    0.0000 H   0  0  0  0  0  0  0  0  0  0  0  0
    5.2285    3.5137    0.0000 H   0  0  0  0  0  0  0  0  0  0  0  0
    5.4849    4.3028    0.0000 H   0  0  0  0  0  0  0  0  0  0  0  0
    1.6898    5.5358    0.0000 H   0  0  0  0  0  0  0  0  0  0  0  0
    1.4335    4.7469    0.0000 H   0  0  0  0  0  0  0  0  0  0  0  0
   14.7435   -0.0002    0.0000 H   0  0  0  0  0  0  0  0  0  0  0  0
    5.8415    1.0829    0.0000 H   0  0  0  0  0  0  0  0  0  0  0  0
    7.2445    1.2729    0.0000 H   0  0  0  0  0  0  0  0  0  0  0  0
    4.4386    0.6529    0.0000 H   0  0  0  0  0  0  0  0  0  0  0  0
    7.1750   -0.0121    0.0000 H   0  0  0  0  0  0  0  0  0  0  0  0
    7.9721   -0.0121    0.0000 H   0  0  0  0  0  0  0  0  0  0  0  0
    6.0536   -1.1198    0.0000 H   0  0  0  0  0  0  0  0  0  0  0  0
    6.4521   -0.4295    0.0000 H   0  0  0  0  0  0  0  0  0  0  0  0
    8.2275    2.5455    0.0000 H   0  0  0  0  0  0  0  0  0  0  0  0
    7.8290    1.8552    0.0000 H   0  0  0  0  0  0  0  0  0  0  0  0
    8.7687    2.7729    0.0000 H   0  0  0  0  0  0  0  0  0  0  0  0
   11.0377    1.0829    0.0000 H   0  0  0  0  0  0  0  0  0  0  0  0
   11.0377   -2.1571    0.0000 H   0  0  0  0  0  0  0  0  0  0  0  0
    9.6347   -1.3471    0.0000 H   0  0  0  0  0  0  0  0  0  0  0  0
    7.2445    2.2729    0.0000 H   0  0  0  0  0  0  0  0  0  0  0  0
    9.9256    3.4629    0.0000 H   0  0  0  0  0  0  0  0  0  0  0  0
    9.3056    4.0829    0.0000 H   0  0  0  0  0  0  0  0  0  0  0  0
    8.6856    3.4629    0.0000 H   0  0  0  0  0  0  0  0  0  0  0  0
    9.8616    1.4259    0.0000 H   0  0  0  0  0  0  0  0  0  0  0  0
   10.7086    1.6529    0.0000 H   0  0  0  0  0  0  0  0  0  0  0  0
   10.4816    2.4998    0.0000 H   0  0  0  0  0  0  0  0  0  0  0  0
    4.1095    0.0829    0.0000 H   0  0  0  0  0  0  0  0  0  0  0  0
    5.5124   -2.3471    0.0000 H   0  0  0  0  0  0  0  0  0  0  0  0
    2.7065   -0.7271    0.0000 H   0  0  0  0  0  0  0  0  0  0  0  0
    4.1095   -3.1571    0.0000 H   0  0  0  0  0  0  0  0  0  0  0  0
    2.7065   -2.3471    0.0000 H   0  0  0  0  0  0  0  0  0  0  0  0
  1 31  1  0  0  0  0
  1 37  1  0  0  0  0
  2  8  2  0  0  0  0
  2  9  2  0  0  0  0
  2 14  1  0  0  0  0
  2 40  1  0  0  0  0
  3 26  1  0  0  0  0
  3 29  1  0  0  0  0
  4 26  1  0  0  0  0
  4 30  1  0  0  0  0
 27  5  1  6  0  0  0
  5 32  1  0  0  0  0
 34  6  1  6  0  0  0
  6 94  1  0  0  0  0
  7 32  2  0  0  0  0
 10 15  1  0  0  0  0
 10 20  1  0  0  0  0
 10 21  1  0  0  0  0
 11 22  1  0  0  0  0
 11 31  1  0  0  0  0
 11 80  1  0  0  0  0
 12 32  1  0  0  0  0
 33 12  1  6  0  0  0
 12 83  1  0  0  0  0
 13 31  2  0  0  0  0
 13 38  1  0  0  0  0
 14 35  1  0  0  0  0
 14 39  1  0  0  0  0
 15 16  1  0  0  0  0
 15 17  1  0  0  0  0
 15 53  1  0  0  0  0
 16 18  1  0  0  0  0
 16 54  1  0  0  0  0
 16 55  1  0  0  0  0
 17 19  1  0  0  0  0
 17 56  1  0  0  0  0
 17 57  1  0  0  0  0
 18 19  1  0  0  0  0
 18 58  1  0  0  0  0
 18 59  1  0  0  0  0
 19 60  1  0  0  0  0
 19 61  1  0  0  0  0
 20 23  1  0  0  0  0
 20 62  1  0  0  0  0
 20 63  1  0  0  0  0
 21 24  1  0  0  0  0
 21 64  1  0  0  0  0
 21 65  1  0  0  0  0
 22 23  1  0  0  0  0
 22 24  1  0  0  0  0
 22 66  1  0  0  0  0
 23 67  1  0  0  0  0
 23 68  1  0  0  0  0
 24 69  1  0  0  0  0
 24 70  1  0  0  0  0
 25 26  1  0  0  0  0
 25 27  1  0  0  0  0
 25 28  1  0  0  0  0
 25 71  1  1  0  0  0
 26 72  1  1  0  0  0
 27 29  1  0  0  0  0
 27 73  1  0  0  0  0
 28 30  1  0  0  0  0
 28 74  1  0  0  0  0
 28 75  1  0  0  0  0
 29 76  1  0  0  0  0
 29 77  1  0  0  0  0
 30 78  1  0  0  0  0
 30 79  1  0  0  0  0
 33 34  1  0  0  0  0
 33 36  1  0  0  0  0
 33 81  1  0  0  0  0
 34 35  1  0  0  0  0
 34 82  1  0  0  0  0
 35 84  1  0  0  0  0
 35 85  1  0  0  0  0
 36 44  1  0  0  0  0
 36 86  1  0  0  0  0
 36 87  1  0  0  0  0
 37 38  2  0  0  0  0
 37 41  1  0  0  0  0
 38 43  1  0  0  0  0
 39 42  1  0  0  0  0
 39 88  1  0  0  0  0
 39 89  1  0  0  0  0
 40 41  2  0  0  0  0
 40 45  1  0  0  0  0
 41 91  1  0  0  0  0
 42 46  1  0  0  0  0
 42 47  1  0  0  0  0
 42 90  1  0  0  0  0
 43 45  2  0  0  0  0
 43 92  1  0  0  0  0
 44 48  2  0  0  0  0
 44 49  1  0  0  0  0
 45 93  1  0  0  0  0
 46 95  1  0  0  0  0
 46 96  1  0  0  0  0
 46 97  1  0  0  0  0
 47 98  1  0  0  0  0
 47 99  1  0  0  0  0
 47100  1  0  0  0  0
 48 50  1  0  0  0  0
 48101  1  0  0  0  0
 49 51  2  0  0  0  0
 49102  1  0  0  0  0
 50 52  2  0  0  0  0
 50103  1  0  0  0  0
 51 52  1  0  0  0  0
 51104  1  0  0  0  0
 52105  1  0  0  0  0
M  END
> <PUBCHEM_COMPOUND_CID>
53361968

> <PUBCHEM_COMPOUND_CANONICALIZED>
1

> <PUBCHEM_CACTVS_COMPLEXITY>
1250

> <PUBCHEM_CACTVS_HBOND_ACCEPTOR>
12

> <PUBCHEM_CACTVS_HBOND_DONOR>
3

> <PUBCHEM_CACTVS_ROTATABLE_BOND>
15

> <PUBCHEM_CACTVS_SUBSKEYS>
AAADcfB/uABgAAAAAAAAAAAAAAAAAeJEiAA8YIAAAAASAFgB9AAAHgQQSAAADTzx3gcz2bPIFgqsAyRifHDD8LlhCjlJmLw4ZJmbMKLg2ZGuYAhtlgLeyCfQ4KgOAAQAAEAAAQAACAAAgAACAAAAAAAAAA==

> <PUBCHEM_IUPAC_OPENEYE_NAME>
[(3aS,4R,6aR)-2,3,3a,4,5,6a-hexahydrofuro[2,3-b]furan-4-yl] N-[(1S,2R)-1-benzyl-3-[[2-[(1-cyclopentyl-4-piperidyl)amino]-1,3-benzothiazol-6-yl]sulfonyl-isobutyl-amino]-2-hydroxy-propyl]carbamate

> <PUBCHEM_IUPAC_CAS_NAME>
N-[(2S,3R)-4-[[2-[(1-cyclopentyl-4-piperidinyl)amino]-1,3-benzothiazol-6-yl]sulfonyl-(2-methylpropyl)amino]-3-hydroxy-1-phenylbutan-2-yl]carbamic acid [(3aS,4R,6aR)-2,3,3a,4,5,6a-hexahydrofuro[2,3-b]furan-4-yl] ester

> <PUBCHEM_IUPAC_NAME_MARKUP>
[(3<I>a</I><I>S</I>,4<I>R</I>,6<I>a</I><I>R</I>)-2,3,3<I>a</I>,4,5,6<I>a</I>-hexahydrofuro[2,3-b]furan-4-yl] <I>N</I>-[(2<I>S</I>,3<I>R</I>)-4-[[2-[(1-cyclopentylpiperidin-4-yl)amino]-1,3-benzothiazol-6-yl]sulfonyl-(2-methylpropyl)amino]-3-hydroxy-1-phenylbutan-2-yl]carbamate

> <PUBCHEM_IUPAC_NAME>
[(3aS,4R,6aR)-2,3,3a,4,5,6a-hexahydrofuro[2,3-b]furan-4-yl] N-[(2S,3R)-4-[[2-[(1-cyclopentylpiperidin-4-yl)amino]-1,3-benzothiazol-6-yl]sulfonyl-(2-methylpropyl)amino]-3-hydroxy-1-phenylbutan-2-yl]carbamate

> <PUBCHEM_IUPAC_SYSTEMATIC_NAME>
[(3aS,4R,6aR)-2,3,3a,4,5,6a-hexahydrofuro[2,3-b]furan-4-yl] N-[(2S,3R)-4-[[2-[(1-cyclopentylpiperidin-4-yl)amino]-1,3-benzothiazol-6-yl]sulfonyl-(2-methylpropyl)amino]-3-oxidanyl-1-phenyl-butan-2-yl]carbamate

> <PUBCHEM_IUPAC_TRADITIONAL_NAME>
N-[(1S,2R)-1-benzyl-3-[[2-[(1-cyclopentyl-4-piperidyl)amino]-1,3-benzothiazol-6-yl]sulfonyl-isobutyl-amino]-2-hydroxy-propyl]carbamic acid [(3aS,4R,6aR)-2,3,3a,4,5,6a-hexahydrofuro[2,3-b]furan-4-yl] ester

> <PUBCHEM_IUPAC_INCHI>
InChI=1S/C38H53N5O7S2/c1-25(2)22-43(23-33(44)32(20-26-8-4-3-5-9-26)41-38(45)50-34-24-49-36-30(34)16-19-48-36)52(46,47)29-12-13-31-35(21-29)51-37(40-31)39-27-14-17-42(18-15-27)28-10-6-7-11-28/h3-5,8-9,12-13,21,25,27-28,30,32-34,36,44H,6-7,10-11,14-20,22-24H2,1-2H3,(H,39,40)(H,41,45)/t30-,32-,33+,34-,36+/m0/s1

> <PUBCHEM_IUPAC_INCHIKEY>
JQUNFHFWXCXPRK-AMMMHQJVSA-N

> <PUBCHEM_XLOGP3_AA>
6.3

> <PUBCHEM_EXACT_MASS>
755.338641

> <PUBCHEM_MOLECULAR_FORMULA>
C38H53N5O7S2

> <PUBCHEM_MOLECULAR_WEIGHT>
756

> <PUBCHEM_OPENEYE_CAN_SMILES>
CC(C)CN(CC(C(CC1=CC=CC=C1)NC(=O)OC2COC3C2CCO3)O)S(=O)(=O)C4=CC5=C(C=C4)N=C(S5)NC6CCN(CC6)C7CCCC7

> <PUBCHEM_OPENEYE_ISO_SMILES>
CC(C)CN(C[C@H]([C@H](CC1=CC=CC=C1)NC(=O)O[C@H]2CO[C@@H]3[C@H]2CCO3)O)S(=O)(=O)C4=CC5=C(C=C4)N=C(S5)NC6CCN(CC6)C7CCCC7

> <PUBCHEM_CACTVS_TPSA>
179

> <PUBCHEM_MONOISOTOPIC_WEIGHT>
755.338641

> <PUBCHEM_TOTAL_CHARGE>
0

> <PUBCHEM_HEAVY_ATOM_COUNT>
52

> <PUBCHEM_ATOM_DEF_STEREO_COUNT>
5

> <PUBCHEM_ATOM_UDEF_STEREO_COUNT>
0

> <PUBCHEM_BOND_DEF_STEREO_COUNT>
0

> <PUBCHEM_BOND_UDEF_STEREO_COUNT>
0

> <PUBCHEM_ISOTOPIC_ATOM_COUNT>
0

> <PUBCHEM_COMPONENT_COUNT>
1

> <PUBCHEM_CACTVS_TAUTO_COUNT>
-1

> <PUBCHEM_COORDINATE_TYPE>
1
5
255

> <PUBCHEM_BONDANNOTATIONS>
1  31  8
1  37  8
33  12  6
13  31  8
13  38  8
25  71  5
26  72  5
37  38  8
37  41  8
38  43  8
40  41  8
40  45  8
43  45  8
44  48  8
44  49  8
48  50  8
49  51  8
27  5  6
50  52  8
51  52  8
34  6  6

$$$$
