53379371
  -OEChem-05242006132D

 47 50  0     0  0  0  0  0  0999 V2000
    4.7210    3.0450    0.0000 O   0  0  0  0  0  0  0  0  0  0  0  0
    8.1667    3.4011    0.0000 O   0  0  0  0  0  0  0  0  0  0  0  0
    6.3411    4.2177    0.0000 O   0  0  0  0  0  0  0  0  0  0  0  0
    7.6651   -0.1694    0.0000 O   0  0  0  0  0  0  0  0  0  0  0  0
    4.6783   -4.2148    0.0000 N   0  0  0  0  0  0  0  0  0  0  0  0
    5.9405   -1.3474    0.0000 N   0  0  0  0  0  0  0  0  0  0  0  0
    4.4026   -0.8448    0.0000 N   0  0  0  0  0  0  0  0  0  0  0  0
    4.6783   -2.6053    0.0000 C   0  0  0  0  0  0  0  0  0  0  0  0
    3.7320   -2.9101    0.0000 C   0  0  0  0  0  0  0  0  0  0  0  0
    3.7320   -3.9101    0.0000 C   0  0  0  0  0  0  0  0  0  0  0  0
    4.9889   -1.6548    0.0000 C   0  0  0  0  0  0  0  0  0  0  0  0
    5.2619   -3.4101    0.0000 C   0  0  0  0  0  0  0  0  0  0  0  0
    5.9422   -0.3474    0.0000 C   0  0  0  0  0  0  0  0  0  0  0  0
    2.8660   -2.4101    0.0000 C   0  0  0  0  0  0  0  0  0  0  0  0
    2.8660   -4.4101    0.0000 C   0  0  0  0  0  0  0  0  0  0  0  0
    6.6495    1.2336    0.0000 C   0  0  0  0  0  0  0  0  0  0  0  0
    6.7523    0.2389    0.0000 C   0  0  0  0  0  0  0  0  0  0  0  0
    4.9917   -0.0368    0.0000 C   0  0  0  0  0  0  0  0  0  0  0  0
    2.0000   -2.9101    0.0000 C   0  0  0  0  0  0  0  0  0  0  0  0
    2.0000   -3.9101    0.0000 C   0  0  0  0  0  0  0  0  0  0  0  0
    7.4595    1.8200    0.0000 C   0  0  0  0  0  0  0  0  0  0  0  0
    5.7366    1.6420    0.0000 C   0  0  0  0  0  0  0  0  0  0  0  0
    5.6338    2.6367    0.0000 C   0  0  0  0  0  0  0  0  0  0  0  0
    7.3567    2.8147    0.0000 C   0  0  0  0  0  0  0  0  0  0  0  0
    6.4439    3.2230    0.0000 C   0  0  0  0  0  0  0  0  0  0  0  0
    4.6182    4.0397    0.0000 C   0  0  0  0  0  0  0  0  0  0  0  0
    9.0796    2.9928    0.0000 C   0  0  0  0  0  0  0  0  0  0  0  0
    7.1511    4.8041    0.0000 C   0  0  0  0  0  0  0  0  0  0  0  0
    5.8819   -3.4101    0.0000 H   0  0  0  0  0  0  0  0  0  0  0  0
    4.8709   -4.8041    0.0000 H   0  0  0  0  0  0  0  0  0  0  0  0
    6.4415   -1.7127    0.0000 H   0  0  0  0  0  0  0  0  0  0  0  0
    2.8660   -1.7901    0.0000 H   0  0  0  0  0  0  0  0  0  0  0  0
    2.8660   -5.0301    0.0000 H   0  0  0  0  0  0  0  0  0  0  0  0
    4.8012    0.5532    0.0000 H   0  0  0  0  0  0  0  0  0  0  0  0
    1.4631   -2.6001    0.0000 H   0  0  0  0  0  0  0  0  0  0  0  0
    1.4631   -4.2201    0.0000 H   0  0  0  0  0  0  0  0  0  0  0  0
    8.0255    1.5669    0.0000 H   0  0  0  0  0  0  0  0  0  0  0  0
    5.2344    1.2784    0.0000 H   0  0  0  0  0  0  0  0  0  0  0  0
    5.2349    4.1034    0.0000 H   0  0  0  0  0  0  0  0  0  0  0  0
    4.5544    4.6564    0.0000 H   0  0  0  0  0  0  0  0  0  0  0  0
    4.0015    3.9759    0.0000 H   0  0  0  0  0  0  0  0  0  0  0  0
    8.8264    2.4268    0.0000 H   0  0  0  0  0  0  0  0  0  0  0  0
    9.6455    2.7396    0.0000 H   0  0  0  0  0  0  0  0  0  0  0  0
    9.3327    3.5588    0.0000 H   0  0  0  0  0  0  0  0  0  0  0  0
    7.5146    4.3019    0.0000 H   0  0  0  0  0  0  0  0  0  0  0  0
    7.6533    5.1677    0.0000 H   0  0  0  0  0  0  0  0  0  0  0  0
    6.7875    5.3064    0.0000 H   0  0  0  0  0  0  0  0  0  0  0  0
  1 23  1  0  0  0  0
  1 26  1  0  0  0  0
  2 24  1  0  0  0  0
  2 27  1  0  0  0  0
  3 25  1  0  0  0  0
  3 28  1  0  0  0  0
  4 17  2  0  0  0  0
  5 10  1  0  0  0  0
  5 12  1  0  0  0  0
  5 30  1  0  0  0  0
  6 11  1  0  0  0  0
  6 13  1  0  0  0  0
  6 31  1  0  0  0  0
  7 11  2  0  0  0  0
  7 18  1  0  0  0  0
  8  9  1  0  0  0  0
  8 11  1  0  0  0  0
  8 12  2  0  0  0  0
  9 10  1  0  0  0  0
  9 14  2  0  0  0  0
 10 15  2  0  0  0  0
 12 29  1  0  0  0  0
 13 17  1  0  0  0  0
 13 18  2  0  0  0  0
 14 19  1  0  0  0  0
 14 32  1  0  0  0  0
 15 20  1  0  0  0  0
 15 33  1  0  0  0  0
 16 17  1  0  0  0  0
 16 21  2  0  0  0  0
 16 22  1  0  0  0  0
 18 34  1  0  0  0  0
 19 20  2  0  0  0  0
 19 35  1  0  0  0  0
 20 36  1  0  0  0  0
 21 24  1  0  0  0  0
 21 37  1  0  0  0  0
 22 23  2  0  0  0  0
 22 38  1  0  0  0  0
 23 25  1  0  0  0  0
 24 25  2  0  0  0  0
 26 39  1  0  0  0  0
 26 40  1  0  0  0  0
 26 41  1  0  0  0  0
 27 42  1  0  0  0  0
 27 43  1  0  0  0  0
 27 44  1  0  0  0  0
 28 45  1  0  0  0  0
 28 46  1  0  0  0  0
 28 47  1  0  0  0  0
M  END
> <PUBCHEM_COMPOUND_CID>
53379371

> <PUBCHEM_COMPOUND_CANONICALIZED>
1

> <PUBCHEM_CACTVS_COMPLEXITY>
534

> <PUBCHEM_CACTVS_HBOND_ACCEPTOR>
5

> <PUBCHEM_CACTVS_HBOND_DONOR>
2

> <PUBCHEM_CACTVS_ROTATABLE_BOND>
6

> <PUBCHEM_CACTVS_SUBSKEYS>
AAADceB7OAAAAAAAAAAAAAAAAAAAAWLAAAAwYAAAAAAAAFgB/AAAHgAQAAAADAzBnwY/1vbJlACoA7Z3ZACCiC23MqAJ2aG+/NiNb/rE/buUMapt0BfK6eea/P/OoAABCAACQABAAAIQAASAAAAAAAAAAA==

> <PUBCHEM_IUPAC_OPENEYE_NAME>
[2-(1H-indol-3-yl)-1H-imidazol-5-yl]-(3,4,5-trimethoxyphenyl)methanone

> <PUBCHEM_IUPAC_CAS_NAME>
[2-(1H-indol-3-yl)-1H-imidazol-5-yl]-(3,4,5-trimethoxyphenyl)methanone

> <PUBCHEM_IUPAC_NAME_MARKUP>
[2-(1<I>H</I>-indol-3-yl)-1<I>H</I>-imidazol-5-yl]-(3,4,5-trimethoxyphenyl)methanone

> <PUBCHEM_IUPAC_NAME>
[2-(1H-indol-3-yl)-1H-imidazol-5-yl]-(3,4,5-trimethoxyphenyl)methanone

> <PUBCHEM_IUPAC_SYSTEMATIC_NAME>
[2-(1H-indol-3-yl)-1H-imidazol-5-yl]-(3,4,5-trimethoxyphenyl)methanone

> <PUBCHEM_IUPAC_TRADITIONAL_NAME>
[2-(1H-indol-3-yl)-1H-imidazol-5-yl]-(3,4,5-trimethoxyphenyl)methanone

> <PUBCHEM_IUPAC_INCHI>
InChI=1S/C21H19N3O4/c1-26-17-8-12(9-18(27-2)20(17)28-3)19(25)16-11-23-21(24-16)14-10-22-15-7-5-4-6-13(14)15/h4-11,22H,1-3H3,(H,23,24)

> <PUBCHEM_IUPAC_INCHIKEY>
WQGVHOVEXMOLOK-UHFFFAOYSA-N

> <PUBCHEM_XLOGP3_AA>
3.4

> <PUBCHEM_EXACT_MASS>
377.137556

> <PUBCHEM_MOLECULAR_FORMULA>
C21H19N3O4

> <PUBCHEM_MOLECULAR_WEIGHT>
377.4

> <PUBCHEM_OPENEYE_CAN_SMILES>
COC1=CC(=CC(=C1OC)OC)C(=O)C2=CN=C(N2)C3=CNC4=CC=CC=C43

> <PUBCHEM_OPENEYE_ISO_SMILES>
COC1=CC(=CC(=C1OC)OC)C(=O)C2=CN=C(N2)C3=CNC4=CC=CC=C43

> <PUBCHEM_CACTVS_TPSA>
89.2

> <PUBCHEM_MONOISOTOPIC_WEIGHT>
377.137556

> <PUBCHEM_TOTAL_CHARGE>
0

> <PUBCHEM_HEAVY_ATOM_COUNT>
28

> <PUBCHEM_ATOM_DEF_STEREO_COUNT>
0

> <PUBCHEM_ATOM_UDEF_STEREO_COUNT>
0

> <PUBCHEM_BOND_DEF_STEREO_COUNT>
0

> <PUBCHEM_BOND_UDEF_STEREO_COUNT>
0

> <PUBCHEM_ISOTOPIC_ATOM_COUNT>
0

> <PUBCHEM_COMPONENT_COUNT>
1

> <PUBCHEM_CACTVS_TAUTO_COUNT>
-1

> <PUBCHEM_COORDINATE_TYPE>
1
5
255

> <PUBCHEM_BONDANNOTATIONS>
10  15  8
13  18  8
14  19  8
15  20  8
16  21  8
16  22  8
19  20  8
21  24  8
22  23  8
23  25  8
24  25  8
5  10  8
5  12  8
6  11  8
6  13  8
7  11  8
7  18  8
8  12  8
8  9  8
9  10  8
9  14  8

$$$$
