56639723
  -OEChem-05242006132D

 39 42  0     0  0  0  0  0  0999 V2000
    6.9718    0.4163    0.0000 S   0  0  0  0  0  0  0  0  0  0  0  0
    2.0000    0.2071    0.0000 F   0  0  0  0  0  0  0  0  0  0  0  0
    3.0000   -0.7929    0.0000 F   0  0  0  0  0  0  0  0  0  0  0  0
    3.0000    1.2071    0.0000 F   0  0  0  0  0  0  0  0  0  0  0  0
    9.6730    2.9050    0.0000 O   0  0  0  0  0  0  0  0  0  0  0  0
    8.8069   -2.5950    0.0000 O   0  0  0  0  0  0  0  0  0  0  0  0
    7.9409   -1.0950    0.0000 O   0  0  0  0  0  0  0  0  0  0  0  0
    8.8069    1.4050    0.0000 N   0  0  0  0  0  0  0  0  0  0  0  0
    8.8069    0.4050    0.0000 N   0  0  0  0  0  0  0  0  0  0  0  0
    6.1671    1.8101    0.0000 N   0  0  0  0  0  0  0  0  0  0  0  0
   11.4329   -0.1297    0.0000 N   0  0  0  0  0  0  0  0  0  0  0  0
   11.4329    1.9397    0.0000 N   0  0  0  0  0  0  0  0  0  0  0  0
    7.9409    1.9050    0.0000 C   0  0  0  0  0  0  0  0  0  0  0  0
    7.0749    1.4050    0.0000 C   0  0  0  0  0  0  0  0  0  0  0  0
    9.6730   -0.0950    0.0000 C   0  0  0  0  0  0  0  0  0  0  0  0
    5.5000    1.0731    0.0000 C   0  0  0  0  0  0  0  0  0  0  0  0
    6.0000    0.2071    0.0000 C   0  0  0  0  0  0  0  0  0  0  0  0
   10.5390    0.4050    0.0000 C   0  0  0  0  0  0  0  0  0  0  0  0
    9.6730    1.9050    0.0000 C   0  0  0  0  0  0  0  0  0  0  0  0
   10.5390    1.4050    0.0000 C   0  0  0  0  0  0  0  0  0  0  0  0
    9.6730   -1.0950    0.0000 C   0  0  0  0  0  0  0  0  0  0  0  0
    4.5000    1.0731    0.0000 C   0  0  0  0  0  0  0  0  0  0  0  0
    4.0000    0.2071    0.0000 C   0  0  0  0  0  0  0  0  0  0  0  0
    5.5000   -0.6590    0.0000 C   0  0  0  0  0  0  0  0  0  0  0  0
    4.5000   -0.6590    0.0000 C   0  0  0  0  0  0  0  0  0  0  0  0
    3.0000    0.2071    0.0000 C   0  0  0  0  0  0  0  0  0  0  0  0
    8.8069   -1.5950    0.0000 C   0  0  0  0  0  0  0  0  0  0  0  0
   12.3390    0.3842    0.0000 C   0  0  0  0  0  0  0  0  0  0  0  0
   12.3390    1.4258    0.0000 C   0  0  0  0  0  0  0  0  0  0  0  0
    8.3394    2.3800    0.0000 H   0  0  0  0  0  0  0  0  0  0  0  0
    7.5424    2.3800    0.0000 H   0  0  0  0  0  0  0  0  0  0  0  0
    9.8850   -1.6776    0.0000 H   0  0  0  0  0  0  0  0  0  0  0  0
   10.2835   -0.9873    0.0000 H   0  0  0  0  0  0  0  0  0  0  0  0
    4.1900    1.6100    0.0000 H   0  0  0  0  0  0  0  0  0  0  0  0
    5.8100   -1.1959    0.0000 H   0  0  0  0  0  0  0  0  0  0  0  0
    4.1900   -1.1959    0.0000 H   0  0  0  0  0  0  0  0  0  0  0  0
   12.8747    0.0721    0.0000 H   0  0  0  0  0  0  0  0  0  0  0  0
   12.8747    1.7379    0.0000 H   0  0  0  0  0  0  0  0  0  0  0  0
    9.3439   -2.9050    0.0000 H   0  0  0  0  0  0  0  0  0  0  0  0
  1 14  1  0  0  0  0
  1 17  1  0  0  0  0
  2 26  1  0  0  0  0
  3 26  1  0  0  0  0
  4 26  1  0  0  0  0
  5 19  2  0  0  0  0
  6 27  1  0  0  0  0
  6 39  1  0  0  0  0
  7 27  2  0  0  0  0
  8  9  1  0  0  0  0
  8 13  1  0  0  0  0
  8 19  1  0  0  0  0
  9 15  2  0  0  0  0
 10 14  2  0  0  0  0
 10 16  1  0  0  0  0
 11 18  2  0  0  0  0
 11 28  1  0  0  0  0
 12 20  2  0  0  0  0
 12 29  1  0  0  0  0
 13 14  1  0  0  0  0
 13 30  1  0  0  0  0
 13 31  1  0  0  0  0
 15 18  1  0  0  0  0
 15 21  1  0  0  0  0
 16 17  2  0  0  0  0
 16 22  1  0  0  0  0
 17 24  1  0  0  0  0
 18 20  1  0  0  0  0
 19 20  1  0  0  0  0
 21 27  1  0  0  0  0
 21 32  1  0  0  0  0
 21 33  1  0  0  0  0
 22 23  2  0  0  0  0
 22 34  1  0  0  0  0
 23 25  1  0  0  0  0
 23 26  1  0  0  0  0
 24 25  2  0  0  0  0
 24 35  1  0  0  0  0
 25 36  1  0  0  0  0
 28 29  2  0  0  0  0
 28 37  1  0  0  0  0
 29 38  1  0  0  0  0
M  END
> <PUBCHEM_COMPOUND_CID>
56639723

> <PUBCHEM_COMPOUND_CANONICALIZED>
1

> <PUBCHEM_CACTVS_COMPLEXITY>
706

> <PUBCHEM_CACTVS_HBOND_ACCEPTOR>
11

> <PUBCHEM_CACTVS_HBOND_DONOR>
1

> <PUBCHEM_CACTVS_ROTATABLE_BOND>
4

> <PUBCHEM_CACTVS_SUBSKEYS>
AAADccB7sYBAAAAAAAAAAAAAAAAAAWAAAAA8QIAAAAAAAFiB/AAAHwQICAAADAjB3hQ8ybIIEgisAzX3XACT8KR3Gjha2D24dNgIYPrg0bGUYYhkjgDoyUe82QMeEAAAQAAAAQAgAACAAAACAAAAAAAAAA==

> <PUBCHEM_IUPAC_OPENEYE_NAME>
2-[5-oxo-6-[[5-(trifluoromethyl)-1,3-benzothiazol-2-yl]methyl]pyrazino[2,3-d]pyridazin-8-yl]acetic acid

> <PUBCHEM_IUPAC_CAS_NAME>
2-[5-oxo-6-[[5-(trifluoromethyl)-1,3-benzothiazol-2-yl]methyl]-8-pyrazino[2,3-d]pyridazinyl]acetic acid

> <PUBCHEM_IUPAC_NAME_MARKUP>
2-[5-oxo-6-[[5-(trifluoromethyl)-1,3-benzothiazol-2-yl]methyl]pyrazino[2,3-d]pyridazin-8-yl]acetic acid

> <PUBCHEM_IUPAC_NAME>
2-[5-oxo-6-[[5-(trifluoromethyl)-1,3-benzothiazol-2-yl]methyl]pyrazino[2,3-d]pyridazin-8-yl]acetic acid

> <PUBCHEM_IUPAC_SYSTEMATIC_NAME>
2-[5-oxidanylidene-6-[[5-(trifluoromethyl)-1,3-benzothiazol-2-yl]methyl]pyrazino[2,3-d]pyridazin-8-yl]ethanoic acid

> <PUBCHEM_IUPAC_TRADITIONAL_NAME>
2-[5-keto-6-[[5-(trifluoromethyl)-1,3-benzothiazol-2-yl]methyl]pyrazino[2,3-d]pyridazin-8-yl]acetic acid

> <PUBCHEM_IUPAC_INCHI>
InChI=1S/C17H10F3N5O3S/c18-17(19,20)8-1-2-11-9(5-8)23-12(29-11)7-25-16(28)15-14(21-3-4-22-15)10(24-25)6-13(26)27/h1-5H,6-7H2,(H,26,27)

> <PUBCHEM_IUPAC_INCHIKEY>
YRGPAXAVTDMKDK-UHFFFAOYSA-N

> <PUBCHEM_XLOGP3_AA>
2.3

> <PUBCHEM_EXACT_MASS>
421.045645

> <PUBCHEM_MOLECULAR_FORMULA>
C17H10F3N5O3S

> <PUBCHEM_MOLECULAR_WEIGHT>
421.4

> <PUBCHEM_OPENEYE_CAN_SMILES>
C1=CC2=C(C=C1C(F)(F)F)N=C(S2)CN3C(=O)C4=NC=CN=C4C(=N3)CC(=O)O

> <PUBCHEM_OPENEYE_ISO_SMILES>
C1=CC2=C(C=C1C(F)(F)F)N=C(S2)CN3C(=O)C4=NC=CN=C4C(=N3)CC(=O)O

> <PUBCHEM_CACTVS_TPSA>
137

> <PUBCHEM_MONOISOTOPIC_WEIGHT>
421.045645

> <PUBCHEM_TOTAL_CHARGE>
0

> <PUBCHEM_HEAVY_ATOM_COUNT>
29

> <PUBCHEM_ATOM_DEF_STEREO_COUNT>
0

> <PUBCHEM_ATOM_UDEF_STEREO_COUNT>
0

> <PUBCHEM_BOND_DEF_STEREO_COUNT>
0

> <PUBCHEM_BOND_UDEF_STEREO_COUNT>
0

> <PUBCHEM_ISOTOPIC_ATOM_COUNT>
0

> <PUBCHEM_COMPONENT_COUNT>
1

> <PUBCHEM_CACTVS_TAUTO_COUNT>
-1

> <PUBCHEM_COORDINATE_TYPE>
1
5
255

> <PUBCHEM_BONDANNOTATIONS>
1  14  8
1  17  8
10  14  8
10  16  8
11  18  8
11  28  8
12  20  8
12  29  8
15  18  8
16  17  8
16  22  8
17  24  8
18  20  8
19  20  8
22  23  8
23  25  8
24  25  8
28  29  8
8  19  8
8  9  8
9  15  8

$$$$
