5702220
  -OEChem-05242006122D

 40 40  0     1  0  0  0  0  0999 V2000
    7.5388    3.0000    0.0000 Br  0  0  0  0  0  0  0  0  0  0  0  0
    5.8067    0.0000    0.0000 Br  0  0  0  0  0  0  0  0  0  0  0  0
    3.2694    6.9750    0.0000 Cl  0  0  0  0  0  0  0  0  0  0  0  0
    3.2087    2.5000    0.0000 N   0  0  3  0  0  0  0  0  0  0  0  0
    5.8067    4.0000    0.0000 N   0  0  0  0  0  0  0  0  0  0  0  0
    2.3426    3.0000    0.0000 C   0  0  0  0  0  0  0  0  0  0  0  0
    2.3426    4.0000    0.0000 C   0  0  0  0  0  0  0  0  0  0  0  0
    1.4766    2.5000    0.0000 C   0  0  0  0  0  0  0  0  0  0  0  0
    1.4766    4.5000    0.0000 C   0  0  0  0  0  0  0  0  0  0  0  0
    0.6106    3.0000    0.0000 C   0  0  0  0  0  0  0  0  0  0  0  0
    0.6106    4.0000    0.0000 C   0  0  0  0  0  0  0  0  0  0  0  0
    4.0747    3.0000    0.0000 C   0  0  0  0  0  0  0  0  0  0  0  0
    3.2087    1.5000    0.0000 C   0  0  0  0  0  0  0  0  0  0  0  0
    4.9407    2.5000    0.0000 C   0  0  0  0  0  0  0  0  0  0  0  0
    5.8067    3.0000    0.0000 C   0  0  0  0  0  0  0  0  0  0  0  0
    4.9407    1.5000    0.0000 C   0  0  0  0  0  0  0  0  0  0  0  0
    6.6728    2.5000    0.0000 C   0  0  0  0  0  0  0  0  0  0  0  0
    5.8067    1.0000    0.0000 C   0  0  0  0  0  0  0  0  0  0  0  0
    6.6728    1.5000    0.0000 C   0  0  0  0  0  0  0  0  0  0  0  0
    2.3426    2.3800    0.0000 H   0  0  0  0  0  0  0  0  0  0  0  0
    2.9532    3.8923    0.0000 H   0  0  0  0  0  0  0  0  0  0  0  0
    2.5547    4.5826    0.0000 H   0  0  0  0  0  0  0  0  0  0  0  0
    1.0781    2.0250    0.0000 H   0  0  0  0  0  0  0  0  0  0  0  0
    1.8751    2.0250    0.0000 H   0  0  0  0  0  0  0  0  0  0  0  0
    1.8751    4.9750    0.0000 H   0  0  0  0  0  0  0  0  0  0  0  0
    1.0781    4.9750    0.0000 H   0  0  0  0  0  0  0  0  0  0  0  0
    0.0000    3.1077    0.0000 H   0  0  0  0  0  0  0  0  0  0  0  0
    0.3985    2.4174    0.0000 H   0  0  0  0  0  0  0  0  0  0  0  0
    0.3985    4.5826    0.0000 H   0  0  0  0  0  0  0  0  0  0  0  0
    0.0000    3.8923    0.0000 H   0  0  0  0  0  0  0  0  0  0  0  0
    4.4732    3.4750    0.0000 H   0  0  0  0  0  0  0  0  0  0  0  0
    3.6762    3.4750    0.0000 H   0  0  0  0  0  0  0  0  0  0  0  0
    2.5887    1.5000    0.0000 H   0  0  0  0  0  0  0  0  0  0  0  0
    3.2087    0.8800    0.0000 H   0  0  0  0  0  0  0  0  0  0  0  0
    3.8287    1.5000    0.0000 H   0  0  0  0  0  0  0  0  0  0  0  0
    4.4038    1.1900    0.0000 H   0  0  0  0  0  0  0  0  0  0  0  0
    7.2097    1.1900    0.0000 H   0  0  0  0  0  0  0  0  0  0  0  0
    6.3437    4.3100    0.0000 H   0  0  0  0  0  0  0  0  0  0  0  0
    5.2698    4.3100    0.0000 H   0  0  0  0  0  0  0  0  0  0  0  0
    4.2694    6.9750    0.0000 H   0  0  0  0  0  0  0  0  0  0  0  0
  1 17  1  0  0  0  0
  2 18  1  0  0  0  0
  3 40  1  0  0  0  0
  4  6  1  0  0  0  0
  4 12  1  0  0  0  0
  4 13  1  0  0  0  0
  5 15  1  0  0  0  0
  5 38  1  0  0  0  0
  5 39  1  0  0  0  0
  6  7  1  0  0  0  0
  6  8  1  0  0  0  0
  6 20  1  0  0  0  0
  7  9  1  0  0  0  0
  7 21  1  0  0  0  0
  7 22  1  0  0  0  0
  8 10  1  0  0  0  0
  8 23  1  0  0  0  0
  8 24  1  0  0  0  0
  9 11  1  0  0  0  0
  9 25  1  0  0  0  0
  9 26  1  0  0  0  0
 10 11  1  0  0  0  0
 10 27  1  0  0  0  0
 10 28  1  0  0  0  0
 11 29  1  0  0  0  0
 11 30  1  0  0  0  0
 12 14  1  0  0  0  0
 12 31  1  0  0  0  0
 12 32  1  0  0  0  0
 13 33  1  0  0  0  0
 13 34  1  0  0  0  0
 13 35  1  0  0  0  0
 14 15  2  0  0  0  0
 14 16  1  0  0  0  0
 15 17  1  0  0  0  0
 16 18  2  0  0  0  0
 16 36  1  0  0  0  0
 17 19  2  0  0  0  0
 18 19  1  0  0  0  0
 19 37  1  0  0  0  0
M  END
> <PUBCHEM_COMPOUND_CID>
5702220

> <PUBCHEM_COMPOUND_CANONICALIZED>
1

> <PUBCHEM_CACTVS_COMPLEXITY>
256

> <PUBCHEM_CACTVS_HBOND_ACCEPTOR>
2

> <PUBCHEM_CACTVS_HBOND_DONOR>
2

> <PUBCHEM_CACTVS_ROTATABLE_BOND>
3

> <PUBCHEM_CACTVS_SUBSKEYS>
AAADceBzAAAEGAAAAAAAAAAAAAAAAAAAAAAwYAAAAAAAAAABAAAAHABQAAABrCjBGAQywINAAACAAiRCQACCAAAgAAQAiAAIRKgIICKA0ZGEIAhggACIyhcQgAAOAAAgEAAiAAgAAEAgAEQAEAAAAAAAAA==

> <PUBCHEM_IUPAC_OPENEYE_NAME>
2,4-dibromo-6-[[cyclohexyl(methyl)amino]methyl]aniline;hydrochloride

> <PUBCHEM_IUPAC_CAS_NAME>
2,4-dibromo-6-[[cyclohexyl(methyl)amino]methyl]aniline;hydrochloride

> <PUBCHEM_IUPAC_NAME_MARKUP>
2,4-dibromo-6-[[cyclohexyl(methyl)amino]methyl]aniline;hydrochloride

> <PUBCHEM_IUPAC_NAME>
2,4-dibromo-6-[[cyclohexyl(methyl)amino]methyl]aniline;hydrochloride

> <PUBCHEM_IUPAC_SYSTEMATIC_NAME>
2,4-bis(bromanyl)-6-[[cyclohexyl(methyl)amino]methyl]aniline;hydrochloride

> <PUBCHEM_IUPAC_TRADITIONAL_NAME>
(2-amino-3,5-dibromo-benzyl)-cyclohexyl-methyl-amine;hydrochloride

> <PUBCHEM_IUPAC_INCHI>
InChI=1S/C14H20Br2N2.ClH/c1-18(12-5-3-2-4-6-12)9-10-7-11(15)8-13(16)14(10)17;/h7-8,12H,2-6,9,17H2,1H3;1H

> <PUBCHEM_IUPAC_INCHIKEY>
UCDKONUHZNTQPY-UHFFFAOYSA-N

> <PUBCHEM_EXACT_MASS>
411.97395

> <PUBCHEM_MOLECULAR_FORMULA>
C14H21Br2ClN2

> <PUBCHEM_MOLECULAR_WEIGHT>
412.59

> <PUBCHEM_OPENEYE_CAN_SMILES>
CN(CC1=C(C(=CC(=C1)Br)Br)N)C2CCCCC2.Cl

> <PUBCHEM_OPENEYE_ISO_SMILES>
CN(CC1=C(C(=CC(=C1)Br)Br)N)C2CCCCC2.Cl

> <PUBCHEM_CACTVS_TPSA>
29.3

> <PUBCHEM_MONOISOTOPIC_WEIGHT>
409.976

> <PUBCHEM_TOTAL_CHARGE>
0

> <PUBCHEM_HEAVY_ATOM_COUNT>
19

> <PUBCHEM_ATOM_DEF_STEREO_COUNT>
0

> <PUBCHEM_ATOM_UDEF_STEREO_COUNT>
0

> <PUBCHEM_BOND_DEF_STEREO_COUNT>
0

> <PUBCHEM_BOND_UDEF_STEREO_COUNT>
0

> <PUBCHEM_ISOTOPIC_ATOM_COUNT>
0

> <PUBCHEM_COMPONENT_COUNT>
2

> <PUBCHEM_CACTVS_TAUTO_COUNT>
-1

> <PUBCHEM_COORDINATE_TYPE>
1
5
255

> <PUBCHEM_BONDANNOTATIONS>
14  15  8
14  16  8
15  17  8
16  18  8
17  19  8
18  19  8

$$$$
