62881
  -OEChem-05242006112D

 96 94  0     0  0  0  0  0  0999 V2000
   13.5273    1.0369    0.0000 S   0  0  0  0  0  0  0  0  0  0  0  0
   11.7953    6.7130    0.0000 O   0  0  0  0  0  0  0  0  0  0  0  0
   21.3215    4.2130    0.0000 O   0  0  0  0  0  0  0  0  0  0  0  0
   10.9292    4.2130    0.0000 O   0  0  0  0  0  0  0  0  0  0  0  0
   17.8574    4.2130    0.0000 O   0  0  0  0  0  0  0  0  0  0  0  0
    8.3312    6.7130    0.0000 O   0  0  0  0  0  0  0  0  0  0  0  0
    2.2690    4.2130    0.0000 O   0  0  0  0  0  0  0  0  0  0  0  0
   20.4555    6.7130    0.0000 O   0  0  0  0  0  0  0  0  0  0  0  0
    1.4030    6.7130    0.0000 O   0  0  0  0  0  0  0  0  0  0  0  0
   14.3933    1.5369    0.0000 O   0  0  0  0  0  0  0  0  0  0  0  0
   13.0273    1.9030    0.0000 O   0  0  0  0  0  0  0  0  0  0  0  0
   14.0273    0.1709    0.0000 O   0  0  0  0  0  0  0  0  0  0  0  0
   11.7953    5.7130    0.0000 N   0  0  0  0  0  0  0  0  0  0  0  0
   16.9914    5.7130    0.0000 N   0  0  0  0  0  0  0  0  0  0  0  0
    7.4651    5.2130    0.0000 N   0  0  0  0  0  0  0  0  0  0  0  0
   21.3215    5.2130    0.0000 N   0  0  0  0  0  0  0  0  0  0  0  0
    2.2690    5.2130    0.0000 N   0  0  0  0  0  0  0  0  0  0  0  0
   26.5177    5.2130    0.0000 N   0  0  0  0  0  0  0  0  0  0  0  0
   14.3933    5.2130    0.0000 C   0  0  0  0  0  0  0  0  0  0  0  0
   13.5273    5.7130    0.0000 C   0  0  0  0  0  0  0  0  0  0  0  0
   15.2594    5.7130    0.0000 C   0  0  0  0  0  0  0  0  0  0  0  0
   12.6613    5.2130    0.0000 C   0  0  0  0  0  0  0  0  0  0  0  0
    4.8671    5.7130    0.0000 C   0  0  0  0  0  0  0  0  0  0  0  0
    5.7331    5.2130    0.0000 C   0  0  0  0  0  0  0  0  0  0  0  0
   16.1254    5.2130    0.0000 C   0  0  0  0  0  0  0  0  0  0  0  0
    4.0010    5.2130    0.0000 C   0  0  0  0  0  0  0  0  0  0  0  0
   23.0536    5.2130    0.0000 C   0  0  0  0  0  0  0  0  0  0  0  0
   23.9196    5.7130    0.0000 C   0  0  0  0  0  0  0  0  0  0  0  0
    6.5991    5.7130    0.0000 C   0  0  0  0  0  0  0  0  0  0  0  0
   22.1876    5.7130    0.0000 C   0  0  0  0  0  0  0  0  0  0  0  0
   24.7856    5.2130    0.0000 C   0  0  0  0  0  0  0  0  0  0  0  0
    3.1350    5.7130    0.0000 C   0  0  0  0  0  0  0  0  0  0  0  0
   10.0632    5.7130    0.0000 C   0  0  0  0  0  0  0  0  0  0  0  0
    9.1972    5.2130    0.0000 C   0  0  0  0  0  0  0  0  0  0  0  0
   18.7235    5.7130    0.0000 C   0  0  0  0  0  0  0  0  0  0  0  0
   10.9292    5.2130    0.0000 C   0  0  0  0  0  0  0  0  0  0  0  0
   19.5895    5.2130    0.0000 C   0  0  0  0  0  0  0  0  0  0  0  0
   17.8574    5.2130    0.0000 C   0  0  0  0  0  0  0  0  0  0  0  0
    8.3312    5.7130    0.0000 C   0  0  0  0  0  0  0  0  0  0  0  0
   25.6517    5.7130    0.0000 C   0  0  0  0  0  0  0  0  0  0  0  0
   20.4555    5.7130    0.0000 C   0  0  0  0  0  0  0  0  0  0  0  0
    1.4030    5.7130    0.0000 C   0  0  0  0  0  0  0  0  0  0  0  0
    0.5369    5.2130    0.0000 C   0  0  0  0  0  0  0  0  0  0  0  0
   12.6613    0.5369    0.0000 C   0  0  0  0  0  0  0  0  0  0  0  0
   13.9948    4.7380    0.0000 H   0  0  0  0  0  0  0  0  0  0  0  0
   14.7919    4.7380    0.0000 H   0  0  0  0  0  0  0  0  0  0  0  0
   13.9258    6.1879    0.0000 H   0  0  0  0  0  0  0  0  0  0  0  0
   13.1288    6.1879    0.0000 H   0  0  0  0  0  0  0  0  0  0  0  0
   15.6579    6.1879    0.0000 H   0  0  0  0  0  0  0  0  0  0  0  0
   14.8608    6.1879    0.0000 H   0  0  0  0  0  0  0  0  0  0  0  0
   12.2628    4.7380    0.0000 H   0  0  0  0  0  0  0  0  0  0  0  0
   13.0598    4.7380    0.0000 H   0  0  0  0  0  0  0  0  0  0  0  0
    5.2656    6.1879    0.0000 H   0  0  0  0  0  0  0  0  0  0  0  0
    4.4685    6.1879    0.0000 H   0  0  0  0  0  0  0  0  0  0  0  0
    5.3346    4.7380    0.0000 H   0  0  0  0  0  0  0  0  0  0  0  0
    6.1316    4.7380    0.0000 H   0  0  0  0  0  0  0  0  0  0  0  0
   15.7269    4.7380    0.0000 H   0  0  0  0  0  0  0  0  0  0  0  0
   16.5239    4.7380    0.0000 H   0  0  0  0  0  0  0  0  0  0  0  0
    3.6025    4.7380    0.0000 H   0  0  0  0  0  0  0  0  0  0  0  0
    4.3996    4.7380    0.0000 H   0  0  0  0  0  0  0  0  0  0  0  0
   22.6551    4.7380    0.0000 H   0  0  0  0  0  0  0  0  0  0  0  0
   23.4521    4.7380    0.0000 H   0  0  0  0  0  0  0  0  0  0  0  0
   24.3181    6.1879    0.0000 H   0  0  0  0  0  0  0  0  0  0  0  0
   23.5211    6.1879    0.0000 H   0  0  0  0  0  0  0  0  0  0  0  0
    6.9976    6.1879    0.0000 H   0  0  0  0  0  0  0  0  0  0  0  0
    6.2006    6.1879    0.0000 H   0  0  0  0  0  0  0  0  0  0  0  0
   22.5861    6.1879    0.0000 H   0  0  0  0  0  0  0  0  0  0  0  0
   21.7890    6.1879    0.0000 H   0  0  0  0  0  0  0  0  0  0  0  0
   24.3871    4.7380    0.0000 H   0  0  0  0  0  0  0  0  0  0  0  0
   25.1842    4.7380    0.0000 H   0  0  0  0  0  0  0  0  0  0  0  0
    3.5335    6.1879    0.0000 H   0  0  0  0  0  0  0  0  0  0  0  0
    2.7365    6.1879    0.0000 H   0  0  0  0  0  0  0  0  0  0  0  0
   16.9914    6.3330    0.0000 H   0  0  0  0  0  0  0  0  0  0  0  0
   10.4617    6.1879    0.0000 H   0  0  0  0  0  0  0  0  0  0  0  0
    9.6647    6.1879    0.0000 H   0  0  0  0  0  0  0  0  0  0  0  0
    8.7987    4.7380    0.0000 H   0  0  0  0  0  0  0  0  0  0  0  0
    9.5957    4.7380    0.0000 H   0  0  0  0  0  0  0  0  0  0  0  0
   19.1220    6.1879    0.0000 H   0  0  0  0  0  0  0  0  0  0  0  0
   18.3249    6.1879    0.0000 H   0  0  0  0  0  0  0  0  0  0  0  0
    7.4651    4.5930    0.0000 H   0  0  0  0  0  0  0  0  0  0  0  0
   19.1910    4.7380    0.0000 H   0  0  0  0  0  0  0  0  0  0  0  0
   19.9880    4.7380    0.0000 H   0  0  0  0  0  0  0  0  0  0  0  0
   26.0502    6.1879    0.0000 H   0  0  0  0  0  0  0  0  0  0  0  0
   25.2531    6.1879    0.0000 H   0  0  0  0  0  0  0  0  0  0  0  0
   12.3322    7.0230    0.0000 H   0  0  0  0  0  0  0  0  0  0  0  0
   27.0546    5.5230    0.0000 H   0  0  0  0  0  0  0  0  0  0  0  0
   26.5177    4.5930    0.0000 H   0  0  0  0  0  0  0  0  0  0  0  0
   21.8585    3.9030    0.0000 H   0  0  0  0  0  0  0  0  0  0  0  0
    1.7320    3.9030    0.0000 H   0  0  0  0  0  0  0  0  0  0  0  0
    0.2269    5.7499    0.0000 H   0  0  0  0  0  0  0  0  0  0  0  0
    0.0000    4.9030    0.0000 H   0  0  0  0  0  0  0  0  0  0  0  0
    0.8469    4.6760    0.0000 H   0  0  0  0  0  0  0  0  0  0  0  0
   12.3513    1.0739    0.0000 H   0  0  0  0  0  0  0  0  0  0  0  0
   12.1244    0.2269    0.0000 H   0  0  0  0  0  0  0  0  0  0  0  0
   12.9713    0.0000    0.0000 H   0  0  0  0  0  0  0  0  0  0  0  0
   14.9303    1.2269    0.0000 H   0  0  0  0  0  0  0  0  0  0  0  0
  1 10  1  0  0  0  0
  1 11  2  0  0  0  0
  1 12  2  0  0  0  0
  1 44  1  0  0  0  0
  2 13  1  0  0  0  0
  2 85  1  0  0  0  0
  3 16  1  0  0  0  0
  3 88  1  0  0  0  0
  4 36  2  0  0  0  0
  5 38  2  0  0  0  0
  6 39  2  0  0  0  0
  7 17  1  0  0  0  0
  7 89  1  0  0  0  0
  8 41  2  0  0  0  0
  9 42  2  0  0  0  0
 10 96  1  0  0  0  0
 13 22  1  0  0  0  0
 13 36  1  0  0  0  0
 14 25  1  0  0  0  0
 14 38  1  0  0  0  0
 14 73  1  0  0  0  0
 15 29  1  0  0  0  0
 15 39  1  0  0  0  0
 15 80  1  0  0  0  0
 16 30  1  0  0  0  0
 16 41  1  0  0  0  0
 17 32  1  0  0  0  0
 17 42  1  0  0  0  0
 18 40  1  0  0  0  0
 18 86  1  0  0  0  0
 18 87  1  0  0  0  0
 19 20  1  0  0  0  0
 19 21  1  0  0  0  0
 19 45  1  0  0  0  0
 19 46  1  0  0  0  0
 20 22  1  0  0  0  0
 20 47  1  0  0  0  0
 20 48  1  0  0  0  0
 21 25  1  0  0  0  0
 21 49  1  0  0  0  0
 21 50  1  0  0  0  0
 22 51  1  0  0  0  0
 22 52  1  0  0  0  0
 23 24  1  0  0  0  0
 23 26  1  0  0  0  0
 23 53  1  0  0  0  0
 23 54  1  0  0  0  0
 24 29  1  0  0  0  0
 24 55  1  0  0  0  0
 24 56  1  0  0  0  0
 25 57  1  0  0  0  0
 25 58  1  0  0  0  0
 26 32  1  0  0  0  0
 26 59  1  0  0  0  0
 26 60  1  0  0  0  0
 27 28  1  0  0  0  0
 27 30  1  0  0  0  0
 27 61  1  0  0  0  0
 27 62  1  0  0  0  0
 28 31  1  0  0  0  0
 28 63  1  0  0  0  0
 28 64  1  0  0  0  0
 29 65  1  0  0  0  0
 29 66  1  0  0  0  0
 30 67  1  0  0  0  0
 30 68  1  0  0  0  0
 31 40  1  0  0  0  0
 31 69  1  0  0  0  0
 31 70  1  0  0  0  0
 32 71  1  0  0  0  0
 32 72  1  0  0  0  0
 33 34  1  0  0  0  0
 33 36  1  0  0  0  0
 33 74  1  0  0  0  0
 33 75  1  0  0  0  0
 34 39  1  0  0  0  0
 34 76  1  0  0  0  0
 34 77  1  0  0  0  0
 35 37  1  0  0  0  0
 35 38  1  0  0  0  0
 35 78  1  0  0  0  0
 35 79  1  0  0  0  0
 37 41  1  0  0  0  0
 37 81  1  0  0  0  0
 37 82  1  0  0  0  0
 40 83  1  0  0  0  0
 40 84  1  0  0  0  0
 42 43  1  0  0  0  0
 43 90  1  0  0  0  0
 43 91  1  0  0  0  0
 43 92  1  0  0  0  0
 44 93  1  0  0  0  0
 44 94  1  0  0  0  0
 44 95  1  0  0  0  0
M  END
> <PUBCHEM_COMPOUND_CID>
62881

> <PUBCHEM_COMPOUND_CANONICALIZED>
1

> <PUBCHEM_CACTVS_COMPLEXITY>
832

> <PUBCHEM_CACTVS_HBOND_ACCEPTOR>
12

> <PUBCHEM_CACTVS_HBOND_DONOR>
7

> <PUBCHEM_CACTVS_ROTATABLE_BOND>
23

> <PUBCHEM_CACTVS_SUBSKEYS>
AAADcfB7vABAAAAAAAAAAAAAAAAAAAAAAAAAAAAAAAAAAAAAAAAAHgQUCAAACADBgASCAALQAIIIAAEQEHAAAAAAAAAgAIEIAAAAABIAgAAEAAAAFgCAAAAVAAAAAAAAAAAAAAAAAAAAAAAAAAAAAAAAAA==

> <PUBCHEM_IUPAC_OPENEYE_NAME>
N-[5-[[4-[5-[acetyl(hydroxy)amino]pentylamino]-4-oxo-butanoyl]-hydroxy-amino]pentyl]-N'-(5-aminopentyl)-N'-hydroxy-butanediamide;methanesulfonic acid

> <PUBCHEM_IUPAC_CAS_NAME>
N-[5-[[4-[5-[acetyl(hydroxy)amino]pentylamino]-1,4-dioxobutyl]-hydroxyamino]pentyl]-N'-(5-aminopentyl)-N'-hydroxybutanediamide;methanesulfonic acid

> <PUBCHEM_IUPAC_NAME_MARKUP>
<I>N</I>-[5-[[4-[5-[acetyl(hydroxy)amino]pentylamino]-4-oxobutanoyl]-hydroxyamino]pentyl]-<I>N</I>&apos;-(5-aminopentyl)-<I>N</I>&apos;-hydroxybutanediamide;methanesulfonic acid

> <PUBCHEM_IUPAC_NAME>
N-[5-[[4-[5-[acetyl(hydroxy)amino]pentylamino]-4-oxobutanoyl]-hydroxyamino]pentyl]-N'-(5-aminopentyl)-N'-hydroxybutanediamide;methanesulfonic acid

> <PUBCHEM_IUPAC_SYSTEMATIC_NAME>
N'-(5-azanylpentyl)-N-[5-[[4-[5-[ethanoyl(oxidanyl)amino]pentylamino]-4-oxidanylidene-butanoyl]-oxidanyl-amino]pentyl]-N'-oxidanyl-butanediamide;methanesulfonic acid

> <PUBCHEM_IUPAC_TRADITIONAL_NAME>
N-[5-[[4-[5-[acetyl(hydroxy)amino]pentylamino]-4-keto-butanoyl]-hydroxy-amino]pentyl]-N'-(5-aminopentyl)-N'-hydroxy-succinamide;mesylic acid

> <PUBCHEM_IUPAC_INCHI>
InChI=1S/C25H48N6O8.CH4O3S/c1-21(32)29(37)18-9-3-6-16-27-22(33)12-14-25(36)31(39)20-10-4-7-17-28-23(34)11-13-24(35)30(38)19-8-2-5-15-26;1-5(2,3)4/h37-39H,2-20,26H2,1H3,(H,27,33)(H,28,34);1H3,(H,2,3,4)

> <PUBCHEM_IUPAC_INCHIKEY>
IDDIJAWJANBQLJ-UHFFFAOYSA-N

> <PUBCHEM_EXACT_MASS>
656.341478

> <PUBCHEM_MOLECULAR_FORMULA>
C26H52N6O11S

> <PUBCHEM_MOLECULAR_WEIGHT>
656.8

> <PUBCHEM_OPENEYE_CAN_SMILES>
CC(=O)N(CCCCCNC(=O)CCC(=O)N(CCCCCNC(=O)CCC(=O)N(CCCCCN)O)O)O.CS(=O)(=O)O

> <PUBCHEM_OPENEYE_ISO_SMILES>
CC(=O)N(CCCCCNC(=O)CCC(=O)N(CCCCCNC(=O)CCC(=O)N(CCCCCN)O)O)O.CS(=O)(=O)O

> <PUBCHEM_CACTVS_TPSA>
269

> <PUBCHEM_MONOISOTOPIC_WEIGHT>
656.341478

> <PUBCHEM_TOTAL_CHARGE>
0

> <PUBCHEM_HEAVY_ATOM_COUNT>
44

> <PUBCHEM_ATOM_DEF_STEREO_COUNT>
0

> <PUBCHEM_ATOM_UDEF_STEREO_COUNT>
0

> <PUBCHEM_BOND_DEF_STEREO_COUNT>
0

> <PUBCHEM_BOND_UDEF_STEREO_COUNT>
0

> <PUBCHEM_ISOTOPIC_ATOM_COUNT>
0

> <PUBCHEM_COMPONENT_COUNT>
2

> <PUBCHEM_CACTVS_TAUTO_COUNT>
-1

> <PUBCHEM_COORDINATE_TYPE>
1
5
255

$$$$
