6398764
  -OEChem-05242006122D

 77 77  0     1  0  0  0  0  0999 V2000
    6.1042    5.0101    0.0000 P   0  0  0  0  0  0  0  0  0  0  0  0
    4.8150    6.1668    0.0000 O   0  0  0  0  0  0  0  0  0  0  0  0
    6.4149    4.0595    0.0000 O   0  0  0  0  0  0  0  0  0  0  0  0
    7.0547    5.3207    0.0000 O   0  0  0  0  0  0  0  0  0  0  0  0
    5.1537    4.6994    0.0000 O   0  0  0  0  0  0  0  0  0  0  0  0
    7.7040    2.9028    0.0000 O   0  0  0  0  0  0  0  0  0  0  0  0
    8.2115    6.6099    0.0000 O   0  0  0  0  0  0  0  0  0  0  0  0
    8.9932    1.7461    0.0000 O   0  0  0  0  0  0  0  0  0  0  0  0
    9.3682    7.8991    0.0000 O   0  0  0  0  0  0  0  0  0  0  0  0
    9.3504    3.4409    0.0000 O   0  0  0  0  0  0  0  0  0  0  0  0
    7.6734    8.2562    0.0000 O   0  0  0  0  0  0  0  0  0  0  0  0
    3.3921   14.8877    0.0000 O   0  0  0  0  0  0  0  0  0  0  0  0
    7.7222   14.3877    0.0000 O   0  0  0  0  0  0  0  0  0  0  0  0
    4.2581   13.3877    0.0000 O   0  0  0  0  0  0  0  0  0  0  0  0
    6.8562   15.8877    0.0000 O   0  0  0  0  0  0  0  0  0  0  0  0
    3.2152    8.2741    0.0000 N   0  0  0  0  0  0  0  0  0  0  0  0
    3.2152    9.8835    0.0000 N   0  0  0  0  0  0  0  0  0  0  0  0
    1.4030    8.0788    0.0000 N   0  0  0  0  0  0  0  0  0  0  0  0
    0.5369    9.5788    0.0000 N   0  0  0  0  0  0  0  0  0  0  0  0
    1.4030   11.0788    0.0000 N   0  0  0  0  0  0  0  0  0  0  0  0
    4.5044    7.1173    0.0000 C   0  0  1  0  0  0  0  0  0  0  0  0
    3.5259    7.3235    0.0000 C   0  0  0  0  0  0  0  0  0  0  0  0
    5.1722    7.8616    0.0000 C   0  0  0  0  0  0  0  0  0  0  0  0
    2.2690    8.5788    0.0000 C   0  0  0  0  0  0  0  0  0  0  0  0
    5.7935    5.9606    0.0000 C   0  0  0  0  0  0  0  0  0  0  0  0
    3.7988    9.0788    0.0000 C   0  0  0  0  0  0  0  0  0  0  0  0
    2.2690    9.5788    0.0000 C   0  0  0  0  0  0  0  0  0  0  0  0
    1.4030   10.0788    0.0000 C   0  0  0  0  0  0  0  0  0  0  0  0
    0.5369    8.5788    0.0000 C   0  0  0  0  0  0  0  0  0  0  0  0
    7.3934    3.8533    0.0000 C   0  0  0  0  0  0  0  0  0  0  0  0
    7.2609    6.2992    0.0000 C   0  0  0  0  0  0  0  0  0  0  0  0
    9.9717    1.5398    0.0000 C   0  0  0  0  0  0  0  0  0  0  0  0
    9.5744    8.8776    0.0000 C   0  0  0  0  0  0  0  0  0  0  0  0
    8.6825    2.6966    0.0000 C   0  0  0  0  0  0  0  0  0  0  0  0
    8.4177    7.5884    0.0000 C   0  0  0  0  0  0  0  0  0  0  0  0
   10.2824    0.5893    0.0000 C   0  0  0  0  0  0  0  0  0  0  0  0
   10.6396    2.2841    0.0000 C   0  0  0  0  0  0  0  0  0  0  0  0
   10.5249    9.1882    0.0000 C   0  0  0  0  0  0  0  0  0  0  0  0
    8.8301    9.5454    0.0000 C   0  0  0  0  0  0  0  0  0  0  0  0
    5.1241   14.8877    0.0000 C   0  0  0  0  0  0  0  0  0  0  0  0
    5.9901   14.3877    0.0000 C   0  0  0  0  0  0  0  0  0  0  0  0
    4.2581   14.3877    0.0000 C   0  0  0  0  0  0  0  0  0  0  0  0
    6.8562   14.8877    0.0000 C   0  0  0  0  0  0  0  0  0  0  0  0
    4.0903    6.6558    0.0000 H   0  0  0  0  0  0  0  0  0  0  0  0
    2.9120    7.2362    0.0000 H   0  0  0  0  0  0  0  0  0  0  0  0
    3.5053    6.7039    0.0000 H   0  0  0  0  0  0  0  0  0  0  0  0
    5.6337    7.4476    0.0000 H   0  0  0  0  0  0  0  0  0  0  0  0
    5.5863    8.3231    0.0000 H   0  0  0  0  0  0  0  0  0  0  0  0
    4.7108    8.2757    0.0000 H   0  0  0  0  0  0  0  0  0  0  0  0
    6.4074    6.0479    0.0000 H   0  0  0  0  0  0  0  0  0  0  0  0
    5.8141    6.5802    0.0000 H   0  0  0  0  0  0  0  0  0  0  0  0
    4.4188    9.0788    0.0000 H   0  0  0  0  0  0  0  0  0  0  0  0
    0.0000    8.2688    0.0000 H   0  0  0  0  0  0  0  0  0  0  0  0
    8.0072    3.9407    0.0000 H   0  0  0  0  0  0  0  0  0  0  0  0
    7.4139    4.4730    0.0000 H   0  0  0  0  0  0  0  0  0  0  0  0
    7.1736    6.9130    0.0000 H   0  0  0  0  0  0  0  0  0  0  0  0
    6.6413    6.3198    0.0000 H   0  0  0  0  0  0  0  0  0  0  0  0
    0.8660   11.3888    0.0000 H   0  0  0  0  0  0  0  0  0  0  0  0
    1.9399   11.3888    0.0000 H   0  0  0  0  0  0  0  0  0  0  0  0
    9.5576    1.0784    0.0000 H   0  0  0  0  0  0  0  0  0  0  0  0
   10.0359    8.4635    0.0000 H   0  0  0  0  0  0  0  0  0  0  0  0
    9.6930    0.3967    0.0000 H   0  0  0  0  0  0  0  0  0  0  0  0
   10.4750    0.0000    0.0000 H   0  0  0  0  0  0  0  0  0  0  0  0
   10.8717    0.7819    0.0000 H   0  0  0  0  0  0  0  0  0  0  0  0
   11.1010    1.8701    0.0000 H   0  0  0  0  0  0  0  0  0  0  0  0
   11.0536    2.7456    0.0000 H   0  0  0  0  0  0  0  0  0  0  0  0
   10.1781    2.6982    0.0000 H   0  0  0  0  0  0  0  0  0  0  0  0
   10.7176    8.5989    0.0000 H   0  0  0  0  0  0  0  0  0  0  0  0
   11.1143    9.3808    0.0000 H   0  0  0  0  0  0  0  0  0  0  0  0
   10.3323    9.7776    0.0000 H   0  0  0  0  0  0  0  0  0  0  0  0
    9.2442   10.0069    0.0000 H   0  0  0  0  0  0  0  0  0  0  0  0
    8.3686    9.9595    0.0000 H   0  0  0  0  0  0  0  0  0  0  0  0
    8.4161    9.0839    0.0000 H   0  0  0  0  0  0  0  0  0  0  0  0
    5.1241   15.5077    0.0000 H   0  0  0  0  0  0  0  0  0  0  0  0
    5.9901   13.7677    0.0000 H   0  0  0  0  0  0  0  0  0  0  0  0
    2.8551   14.5777    0.0000 H   0  0  0  0  0  0  0  0  0  0  0  0
    8.2591   14.6977    0.0000 H   0  0  0  0  0  0  0  0  0  0  0  0
  1  3  1  0  0  0  0
  1  4  1  0  0  0  0
  1  5  2  0  0  0  0
  1 25  1  0  0  0  0
 21  2  1  1  0  0  0
  2 25  1  0  0  0  0
  3 30  1  0  0  0  0
  4 31  1  0  0  0  0
  6 30  1  0  0  0  0
  6 34  1  0  0  0  0
  7 31  1  0  0  0  0
  7 35  1  0  0  0  0
  8 32  1  0  0  0  0
  8 34  1  0  0  0  0
  9 33  1  0  0  0  0
  9 35  1  0  0  0  0
 10 34  2  0  0  0  0
 11 35  2  0  0  0  0
 12 42  1  0  0  0  0
 12 76  1  0  0  0  0
 13 43  1  0  0  0  0
 13 77  1  0  0  0  0
 14 42  2  0  0  0  0
 15 43  2  0  0  0  0
 16 22  1  0  0  0  0
 16 24  1  0  0  0  0
 16 26  1  0  0  0  0
 17 26  2  0  0  0  0
 17 27  1  0  0  0  0
 18 24  2  0  0  0  0
 18 29  1  0  0  0  0
 19 28  1  0  0  0  0
 19 29  2  0  0  0  0
 20 28  1  0  0  0  0
 20 58  1  0  0  0  0
 20 59  1  0  0  0  0
 21 22  1  0  0  0  0
 21 23  1  0  0  0  0
 21 44  1  0  0  0  0
 22 45  1  0  0  0  0
 22 46  1  0  0  0  0
 23 47  1  0  0  0  0
 23 48  1  0  0  0  0
 23 49  1  0  0  0  0
 24 27  1  0  0  0  0
 25 50  1  0  0  0  0
 25 51  1  0  0  0  0
 26 52  1  0  0  0  0
 27 28  2  0  0  0  0
 29 53  1  0  0  0  0
 30 54  1  0  0  0  0
 30 55  1  0  0  0  0
 31 56  1  0  0  0  0
 31 57  1  0  0  0  0
 32 36  1  0  0  0  0
 32 37  1  0  0  0  0
 32 60  1  0  0  0  0
 33 38  1  0  0  0  0
 33 39  1  0  0  0  0
 33 61  1  0  0  0  0
 36 62  1  0  0  0  0
 36 63  1  0  0  0  0
 36 64  1  0  0  0  0
 37 65  1  0  0  0  0
 37 66  1  0  0  0  0
 37 67  1  0  0  0  0
 38 68  1  0  0  0  0
 38 69  1  0  0  0  0
 38 70  1  0  0  0  0
 39 71  1  0  0  0  0
 39 72  1  0  0  0  0
 39 73  1  0  0  0  0
 40 41  2  0  0  0  0
 40 42  1  0  0  0  0
 40 74  1  0  0  0  0
 41 43  1  0  0  0  0
 41 75  1  0  0  0  0
M  END
> <PUBCHEM_COMPOUND_CID>
6398764

> <PUBCHEM_COMPOUND_CANONICALIZED>
1

> <PUBCHEM_CACTVS_COMPLEXITY>
817

> <PUBCHEM_CACTVS_HBOND_ACCEPTOR>
18

> <PUBCHEM_CACTVS_HBOND_DONOR>
3

> <PUBCHEM_CACTVS_ROTATABLE_BOND>
19

> <PUBCHEM_CACTVS_SUBSKEYS>
AAADcfB7vAIAAAAAAAAAAAAAAAAAAWAAAAAsAAAAAAAAAFgB+AAAHggQCCAACBzhlwcH+L9MFxCoQSbzbICAgC0REKAJWCAoVFCSTABASEA1FAgIAALUEaAAAAAAAAAAAAAAAAAAAAAAAAAAAAAAAAAAAA==

> <PUBCHEM_IUPAC_OPENEYE_NAME>
[[(1R)-2-(6-aminopurin-9-yl)-1-methyl-ethoxy]methyl-(isopropoxycarbonyloxymethoxy)phosphoryl]oxymethyl isopropyl carbonate;fumaric acid

> <PUBCHEM_IUPAC_CAS_NAME>
(E)-2-butenedioic acid;carbonic acid [[(2R)-1-(6-aminopurin-9-yl)propan-2-yl]oxymethyl-[[oxo(propan-2-yloxy)methoxy]methoxy]phosphoryl]oxymethyl propan-2-yl ester

> <PUBCHEM_IUPAC_NAME_MARKUP>
[[(2<I>R</I>)-1-(6-aminopurin-9-yl)propan-2-yl]oxymethyl-(propan-2-yloxycarbonyloxymethoxy)phosphoryl]oxymethyl propan-2-yl carbonate;(<I>E</I>)-but-2-enedioic acid

> <PUBCHEM_IUPAC_NAME>
[[(2R)-1-(6-aminopurin-9-yl)propan-2-yl]oxymethyl-(propan-2-yloxycarbonyloxymethoxy)phosphoryl]oxymethyl propan-2-yl carbonate;(E)-but-2-enedioic acid

> <PUBCHEM_IUPAC_SYSTEMATIC_NAME>
[[(2R)-1-(6-aminopurin-9-yl)propan-2-yl]oxymethyl-(propan-2-yloxycarbonyloxymethoxy)phosphoryl]oxymethyl propan-2-yl carbonate;(E)-but-2-enedioic acid

> <PUBCHEM_IUPAC_TRADITIONAL_NAME>
carbonic acid [[(1R)-2-adenin-9-yl-1-methyl-ethoxy]methyl-(isopropoxycarbonyloxymethoxy)phosphoryl]oxymethyl isopropyl ester;fumaric acid

> <PUBCHEM_IUPAC_INCHI>
InChI=1S/C19H30N5O10P.C4H4O4/c1-12(2)33-18(25)28-9-31-35(27,32-10-29-19(26)34-13(3)4)11-30-14(5)6-24-8-23-15-16(20)21-7-22-17(15)24;5-3(6)1-2-4(7)8/h7-8,12-14H,6,9-11H2,1-5H3,(H2,20,21,22);1-2H,(H,5,6)(H,7,8)/b;2-1+/t14-;/m1./s1

> <PUBCHEM_IUPAC_INCHIKEY>
VCMJCVGFSROFHV-WZGZYPNHSA-N

> <PUBCHEM_EXACT_MASS>
635.183988

> <PUBCHEM_MOLECULAR_FORMULA>
C23H34N5O14P

> <PUBCHEM_MOLECULAR_WEIGHT>
635.5

> <PUBCHEM_OPENEYE_CAN_SMILES>
CC(C)OC(=O)OCOP(=O)(COC(C)CN1C=NC2=C(N=CN=C21)N)OCOC(=O)OC(C)C.C(=CC(=O)O)C(=O)O

> <PUBCHEM_OPENEYE_ISO_SMILES>
C[C@H](CN1C=NC2=C(N=CN=C21)N)OCP(=O)(OCOC(=O)OC(C)C)OCOC(=O)OC(C)C.C(=C/C(=O)O)\C(=O)O

> <PUBCHEM_CACTVS_TPSA>
260

> <PUBCHEM_MONOISOTOPIC_WEIGHT>
635.183988

> <PUBCHEM_TOTAL_CHARGE>
0

> <PUBCHEM_HEAVY_ATOM_COUNT>
43

> <PUBCHEM_ATOM_DEF_STEREO_COUNT>
1

> <PUBCHEM_ATOM_UDEF_STEREO_COUNT>
0

> <PUBCHEM_BOND_DEF_STEREO_COUNT>
1

> <PUBCHEM_BOND_UDEF_STEREO_COUNT>
0

> <PUBCHEM_ISOTOPIC_ATOM_COUNT>
0

> <PUBCHEM_COMPONENT_COUNT>
2

> <PUBCHEM_CACTVS_TAUTO_COUNT>
-1

> <PUBCHEM_COORDINATE_TYPE>
1
5
255

> <PUBCHEM_BONDANNOTATIONS>
16  24  8
16  26  8
17  26  8
17  27  8
18  24  8
18  29  8
19  28  8
19  29  8
21  2  5
24  27  8
27  28  8

$$$$
