66714983
  -OEChem-05242006132D

 45 48  0     1  0  0  0  0  0999 V2000
    4.0015    4.8688    0.0000 O   0  0  0  0  0  0  0  0  0  0  0  0
    6.3381   -2.9918    0.0000 O   0  0  0  0  0  0  0  0  0  0  0  0
    4.9720    2.3742    0.0000 N   0  0  0  0  0  0  0  0  0  0  0  0
    3.1925    3.4675    0.0000 N   0  0  0  0  0  0  0  0  0  0  0  0
    2.5233    4.2106    0.0000 N   0  0  0  0  0  0  0  0  0  0  0  0
    2.6166    5.9902    0.0000 N   0  0  0  0  0  0  0  0  0  0  0  0
    6.3381    1.0082    0.0000 C   0  0  1  0  0  0  0  0  0  0  0  0
    5.8381    1.8742    0.0000 C   0  0  1  0  0  0  0  0  0  0  0  0
    6.8381    1.8742    0.0000 C   0  0  0  0  0  0  0  0  0  0  0  0
    6.3381    0.0082    0.0000 C   0  0  0  0  0  0  0  0  0  0  0  0
    4.9720    3.3742    0.0000 C   0  0  0  0  0  0  0  0  0  0  0  0
    7.2041   -0.4918    0.0000 C   0  0  0  0  0  0  0  0  0  0  0  0
    5.4720   -0.4918    0.0000 C   0  0  0  0  0  0  0  0  0  0  0  0
    7.2041   -1.4918    0.0000 C   0  0  0  0  0  0  0  0  0  0  0  0
    5.4720   -1.4918    0.0000 C   0  0  0  0  0  0  0  0  0  0  0  0
    4.1060    3.8742    0.0000 C   0  0  0  0  0  0  0  0  0  0  0  0
    6.3381   -1.9918    0.0000 C   0  0  0  0  0  0  0  0  0  0  0  0
    7.2041   -3.4918    0.0000 C   0  0  0  0  0  0  0  0  0  0  0  0
    3.0233    5.0767    0.0000 C   0  0  0  0  0  0  0  0  0  0  0  0
    7.2041   -4.4918    0.0000 C   0  0  0  0  0  0  0  0  0  0  0  0
    6.3381   -4.9918    0.0000 C   0  0  0  0  0  0  0  0  0  0  0  0
    8.0701   -4.9918    0.0000 C   0  0  0  0  0  0  0  0  0  0  0  0
    6.3381   -5.9918    0.0000 C   0  0  0  0  0  0  0  0  0  0  0  0
    8.0701   -5.9918    0.0000 C   0  0  0  0  0  0  0  0  0  0  0  0
    7.2041   -6.4918    0.0000 C   0  0  0  0  0  0  0  0  0  0  0  0
    6.9369    0.8477    0.0000 H   0  0  0  0  0  0  0  0  0  0  0  0
    5.3997    1.4358    0.0000 H   0  0  0  0  0  0  0  0  0  0  0  0
    7.4207    1.6622    0.0000 H   0  0  0  0  0  0  0  0  0  0  0  0
    6.9457    2.4848    0.0000 H   0  0  0  0  0  0  0  0  0  0  0  0
    4.4351    2.0642    0.0000 H   0  0  0  0  0  0  0  0  0  0  0  0
    5.5826    3.2666    0.0000 H   0  0  0  0  0  0  0  0  0  0  0  0
    5.1841    3.9568    0.0000 H   0  0  0  0  0  0  0  0  0  0  0  0
    7.7410   -0.1818    0.0000 H   0  0  0  0  0  0  0  0  0  0  0  0
    4.9351   -0.1818    0.0000 H   0  0  0  0  0  0  0  0  0  0  0  0
    7.7410   -1.8018    0.0000 H   0  0  0  0  0  0  0  0  0  0  0  0
    4.9351   -1.8018    0.0000 H   0  0  0  0  0  0  0  0  0  0  0  0
    7.8147   -3.5995    0.0000 H   0  0  0  0  0  0  0  0  0  0  0  0
    7.4161   -2.9092    0.0000 H   0  0  0  0  0  0  0  0  0  0  0  0
    2.0000    6.0550    0.0000 H   0  0  0  0  0  0  0  0  0  0  0  0
    2.9810    6.4918    0.0000 H   0  0  0  0  0  0  0  0  0  0  0  0
    5.8011   -4.6818    0.0000 H   0  0  0  0  0  0  0  0  0  0  0  0
    8.6070   -4.6818    0.0000 H   0  0  0  0  0  0  0  0  0  0  0  0
    5.8011   -6.3018    0.0000 H   0  0  0  0  0  0  0  0  0  0  0  0
    8.6070   -6.3018    0.0000 H   0  0  0  0  0  0  0  0  0  0  0  0
    7.2041   -7.1118    0.0000 H   0  0  0  0  0  0  0  0  0  0  0  0
  1 16  1  0  0  0  0
  1 19  1  0  0  0  0
  2 17  1  0  0  0  0
  2 18  1  0  0  0  0
  8  3  1  6  0  0  0
  3 11  1  0  0  0  0
  3 30  1  0  0  0  0
  4  5  1  0  0  0  0
  4 16  2  0  0  0  0
  5 19  2  0  0  0  0
  6 19  1  0  0  0  0
  6 39  1  0  0  0  0
  6 40  1  0  0  0  0
  7  8  1  0  0  0  0
  7  9  1  0  0  0  0
  7 10  1  1  0  0  0
  7 26  1  0  0  0  0
  8  9  1  0  0  0  0
  8 27  1  0  0  0  0
  9 28  1  0  0  0  0
  9 29  1  0  0  0  0
 10 12  2  0  0  0  0
 10 13  1  0  0  0  0
 11 16  1  0  0  0  0
 11 31  1  0  0  0  0
 11 32  1  0  0  0  0
 12 14  1  0  0  0  0
 12 33  1  0  0  0  0
 13 15  2  0  0  0  0
 13 34  1  0  0  0  0
 14 17  2  0  0  0  0
 14 35  1  0  0  0  0
 15 17  1  0  0  0  0
 15 36  1  0  0  0  0
 18 20  1  0  0  0  0
 18 37  1  0  0  0  0
 18 38  1  0  0  0  0
 20 21  2  0  0  0  0
 20 22  1  0  0  0  0
 21 23  1  0  0  0  0
 21 41  1  0  0  0  0
 22 24  2  0  0  0  0
 22 42  1  0  0  0  0
 23 25  2  0  0  0  0
 23 43  1  0  0  0  0
 24 25  1  0  0  0  0
 24 44  1  0  0  0  0
 25 45  1  0  0  0  0
M  END
> <PUBCHEM_COMPOUND_CID>
66714983

> <PUBCHEM_COMPOUND_CANONICALIZED>
1

> <PUBCHEM_CACTVS_COMPLEXITY>
410

> <PUBCHEM_CACTVS_HBOND_ACCEPTOR>
6

> <PUBCHEM_CACTVS_HBOND_DONOR>
2

> <PUBCHEM_CACTVS_ROTATABLE_BOND>
7

> <PUBCHEM_CACTVS_SUBSKEYS>
AAADceB7sAAAAAAAAAAAAAAAGAAAAWAAAAAwYAAAAAAAAAAB0AAAHgAYAAAADSzhmgYxFoLABECqAiFyMAASCAIoIAAeiICeCIkOZiKEsTufOCC02BGYqAeQwPAOoAAAAAAAAABAAAAAAAAAAAAAAAAAAA==

> <PUBCHEM_IUPAC_OPENEYE_NAME>
5-[[[(1R,2S)-2-(4-benzyloxyphenyl)cyclopropyl]amino]methyl]-1,3,4-oxadiazol-2-amine

> <PUBCHEM_IUPAC_CAS_NAME>
5-[[[(1R,2S)-2-(4-phenylmethoxyphenyl)cyclopropyl]amino]methyl]-1,3,4-oxadiazol-2-amine

> <PUBCHEM_IUPAC_NAME_MARKUP>
5-[[[(1<I>R</I>,2<I>S</I>)-2-(4-phenylmethoxyphenyl)cyclopropyl]amino]methyl]-1,3,4-oxadiazol-2-amine

> <PUBCHEM_IUPAC_NAME>
5-[[[(1R,2S)-2-(4-phenylmethoxyphenyl)cyclopropyl]amino]methyl]-1,3,4-oxadiazol-2-amine

> <PUBCHEM_IUPAC_SYSTEMATIC_NAME>
5-[[[(1R,2S)-2-(4-phenylmethoxyphenyl)cyclopropyl]amino]methyl]-1,3,4-oxadiazol-2-amine

> <PUBCHEM_IUPAC_TRADITIONAL_NAME>
(5-amino-1,3,4-oxadiazol-2-yl)methyl-[(1R,2S)-2-(4-benzoxyphenyl)cyclopropyl]amine

> <PUBCHEM_IUPAC_INCHI>
InChI=1S/C19H20N4O2/c20-19-23-22-18(25-19)11-21-17-10-16(17)14-6-8-15(9-7-14)24-12-13-4-2-1-3-5-13/h1-9,16-17,21H,10-12H2,(H2,20,23)/t16-,17+/m0/s1

> <PUBCHEM_IUPAC_INCHIKEY>
XBBRLCXCBCZIOI-DLBZAZTESA-N

> <PUBCHEM_XLOGP3_AA>
2.2

> <PUBCHEM_EXACT_MASS>
336.158626

> <PUBCHEM_MOLECULAR_FORMULA>
C19H20N4O2

> <PUBCHEM_MOLECULAR_WEIGHT>
336.4

> <PUBCHEM_OPENEYE_CAN_SMILES>
C1C(C1NCC2=NN=C(O2)N)C3=CC=C(C=C3)OCC4=CC=CC=C4

> <PUBCHEM_OPENEYE_ISO_SMILES>
C1[C@H]([C@@H]1NCC2=NN=C(O2)N)C3=CC=C(C=C3)OCC4=CC=CC=C4

> <PUBCHEM_CACTVS_TPSA>
86.2

> <PUBCHEM_MONOISOTOPIC_WEIGHT>
336.158626

> <PUBCHEM_TOTAL_CHARGE>
0

> <PUBCHEM_HEAVY_ATOM_COUNT>
25

> <PUBCHEM_ATOM_DEF_STEREO_COUNT>
2

> <PUBCHEM_ATOM_UDEF_STEREO_COUNT>
0

> <PUBCHEM_BOND_DEF_STEREO_COUNT>
0

> <PUBCHEM_BOND_UDEF_STEREO_COUNT>
0

> <PUBCHEM_ISOTOPIC_ATOM_COUNT>
0

> <PUBCHEM_COMPONENT_COUNT>
1

> <PUBCHEM_CACTVS_TAUTO_COUNT>
-1

> <PUBCHEM_COORDINATE_TYPE>
1
5
255

> <PUBCHEM_BONDANNOTATIONS>
1  16  8
1  19  8
10  12  8
10  13  8
12  14  8
13  15  8
14  17  8
15  17  8
20  21  8
20  22  8
21  23  8
22  24  8
23  25  8
24  25  8
8  3  6
4  16  8
4  5  8
5  19  8
7  10  5

$$$$
