673374
  -OEChem-05242006122D

 35 37  0     0  0  0  0  0  0999 V2000
    5.0132    1.5887    0.0000 O   0  0  0  0  0  0  0  0  0  0  0  0
    8.5575    0.3934    0.0000 O   0  0  0  0  0  0  0  0  0  0  0  0
    8.5575   -1.2160    0.0000 O   0  0  0  0  0  0  0  0  0  0  0  0
    4.1472    0.0887    0.0000 N   0  0  0  0  0  0  0  0  0  0  0  0
    2.5000   -1.4397    0.0000 C   0  0  0  0  0  0  0  0  0  0  0  0
    2.0000   -0.5736    0.0000 C   0  0  0  0  0  0  0  0  0  0  0  0
    3.4888   -1.5887    0.0000 C   0  0  0  0  0  0  0  0  0  0  0  0
    2.3653    0.3573    0.0000 C   0  0  0  0  0  0  0  0  0  0  0  0
    4.2219   -0.9085    0.0000 C   0  0  0  0  0  0  0  0  0  0  0  0
    3.3209    0.6520    0.0000 C   0  0  0  0  0  0  0  0  0  0  0  0
    5.0132    0.5887    0.0000 C   0  0  0  0  0  0  0  0  0  0  0  0
    5.8792    0.0887    0.0000 C   0  0  0  0  0  0  0  0  0  0  0  0
    6.7452    0.5887    0.0000 C   0  0  0  0  0  0  0  0  0  0  0  0
    5.8792   -0.9113    0.0000 C   0  0  0  0  0  0  0  0  0  0  0  0
    7.6112    0.0887    0.0000 C   0  0  0  0  0  0  0  0  0  0  0  0
    7.6112   -0.9113    0.0000 C   0  0  0  0  0  0  0  0  0  0  0  0
    6.7452   -1.4113    0.0000 C   0  0  0  0  0  0  0  0  0  0  0  0
    9.1411   -0.4113    0.0000 C   0  0  0  0  0  0  0  0  0  0  0  0
    1.9075   -1.6224    0.0000 H   0  0  0  0  0  0  0  0  0  0  0  0
    2.5463   -2.0579    0.0000 H   0  0  0  0  0  0  0  0  0  0  0  0
    1.4877   -0.2244    0.0000 H   0  0  0  0  0  0  0  0  0  0  0  0
    1.5455   -0.9953    0.0000 H   0  0  0  0  0  0  0  0  0  0  0  0
    3.2623   -2.1658    0.0000 H   0  0  0  0  0  0  0  0  0  0  0  0
    4.0011   -1.9380    0.0000 H   0  0  0  0  0  0  0  0  0  0  0  0
    2.3190    0.9755    0.0000 H   0  0  0  0  0  0  0  0  0  0  0  0
    1.7523    0.4497    0.0000 H   0  0  0  0  0  0  0  0  0  0  0  0
    4.5319   -1.4454    0.0000 H   0  0  0  0  0  0  0  0  0  0  0  0
    4.8143   -0.7258    0.0000 H   0  0  0  0  0  0  0  0  0  0  0  0
    3.7754    1.0737    0.0000 H   0  0  0  0  0  0  0  0  0  0  0  0
    3.0109    1.1889    0.0000 H   0  0  0  0  0  0  0  0  0  0  0  0
    6.7452    1.2087    0.0000 H   0  0  0  0  0  0  0  0  0  0  0  0
    5.3423   -1.2213    0.0000 H   0  0  0  0  0  0  0  0  0  0  0  0
    6.7452   -2.0313    0.0000 H   0  0  0  0  0  0  0  0  0  0  0  0
    9.6020   -0.8260    0.0000 H   0  0  0  0  0  0  0  0  0  0  0  0
    9.6020    0.0034    0.0000 H   0  0  0  0  0  0  0  0  0  0  0  0
  1 11  2  0  0  0  0
  2 15  1  0  0  0  0
  2 18  1  0  0  0  0
  3 16  1  0  0  0  0
  3 18  1  0  0  0  0
  4  9  1  0  0  0  0
  4 10  1  0  0  0  0
  4 11  1  0  0  0  0
  5  6  1  0  0  0  0
  5  7  1  0  0  0  0
  5 19  1  0  0  0  0
  5 20  1  0  0  0  0
  6  8  1  0  0  0  0
  6 21  1  0  0  0  0
  6 22  1  0  0  0  0
  7  9  1  0  0  0  0
  7 23  1  0  0  0  0
  7 24  1  0  0  0  0
  8 10  1  0  0  0  0
  8 25  1  0  0  0  0
  8 26  1  0  0  0  0
  9 27  1  0  0  0  0
  9 28  1  0  0  0  0
 10 29  1  0  0  0  0
 10 30  1  0  0  0  0
 11 12  1  0  0  0  0
 12 13  2  0  0  0  0
 12 14  1  0  0  0  0
 13 15  1  0  0  0  0
 13 31  1  0  0  0  0
 14 17  2  0  0  0  0
 14 32  1  0  0  0  0
 15 16  2  0  0  0  0
 16 17  1  0  0  0  0
 17 33  1  0  0  0  0
 18 34  1  0  0  0  0
 18 35  1  0  0  0  0
M  END
> <PUBCHEM_COMPOUND_CID>
673374

> <PUBCHEM_COMPOUND_CANONICALIZED>
1

> <PUBCHEM_CACTVS_COMPLEXITY>
299

> <PUBCHEM_CACTVS_HBOND_ACCEPTOR>
3

> <PUBCHEM_CACTVS_HBOND_DONOR>
0

> <PUBCHEM_CACTVS_ROTATABLE_BOND>
1

> <PUBCHEM_CACTVS_SUBSKEYS>
AAADceByMAAAAAAAAAAAAAAAAAAAASAAAAAwAAAABYAAAEgBAAAAHgAAAAAADATBmAcwDoMABACIAiFSEACCCAAkIAAIiAEOjMgdJjKEtRukMSpkxhGOqYe63BLOIAABAAAAQABAAAIAAACAAAAAAAAAAA==

> <PUBCHEM_IUPAC_OPENEYE_NAME>
azepan-1-yl(1,3-benzodioxol-5-yl)methanone

> <PUBCHEM_IUPAC_CAS_NAME>
1-azepanyl(1,3-benzodioxol-5-yl)methanone

> <PUBCHEM_IUPAC_NAME_MARKUP>
azepan-1-yl(1,3-benzodioxol-5-yl)methanone

> <PUBCHEM_IUPAC_NAME>
azepan-1-yl(1,3-benzodioxol-5-yl)methanone

> <PUBCHEM_IUPAC_SYSTEMATIC_NAME>
azepan-1-yl(1,3-benzodioxol-5-yl)methanone

> <PUBCHEM_IUPAC_TRADITIONAL_NAME>
azepan-1-yl(1,3-benzodioxol-5-yl)methanone

> <PUBCHEM_IUPAC_INCHI>
InChI=1S/C14H17NO3/c16-14(15-7-3-1-2-4-8-15)11-5-6-12-13(9-11)18-10-17-12/h5-6,9H,1-4,7-8,10H2

> <PUBCHEM_IUPAC_INCHIKEY>
ABPXISKFLMGPJG-UHFFFAOYSA-N

> <PUBCHEM_XLOGP3_AA>
2.4

> <PUBCHEM_EXACT_MASS>
247.120843

> <PUBCHEM_MOLECULAR_FORMULA>
C14H17NO3

> <PUBCHEM_MOLECULAR_WEIGHT>
247.29

> <PUBCHEM_OPENEYE_CAN_SMILES>
C1CCCN(CC1)C(=O)C2=CC3=C(C=C2)OCO3

> <PUBCHEM_OPENEYE_ISO_SMILES>
C1CCCN(CC1)C(=O)C2=CC3=C(C=C2)OCO3

> <PUBCHEM_CACTVS_TPSA>
38.8

> <PUBCHEM_MONOISOTOPIC_WEIGHT>
247.120843

> <PUBCHEM_TOTAL_CHARGE>
0

> <PUBCHEM_HEAVY_ATOM_COUNT>
18

> <PUBCHEM_ATOM_DEF_STEREO_COUNT>
0

> <PUBCHEM_ATOM_UDEF_STEREO_COUNT>
0

> <PUBCHEM_BOND_DEF_STEREO_COUNT>
0

> <PUBCHEM_BOND_UDEF_STEREO_COUNT>
0

> <PUBCHEM_ISOTOPIC_ATOM_COUNT>
0

> <PUBCHEM_COMPONENT_COUNT>
1

> <PUBCHEM_CACTVS_TAUTO_COUNT>
-1

> <PUBCHEM_COORDINATE_TYPE>
1
5
255

> <PUBCHEM_BONDANNOTATIONS>
12  13  8
12  14  8
13  15  8
14  17  8
15  16  8
16  17  8

$$$$
