6918602
  -OEChem-05242006102D

 70 73  0     1  0  0  0  0  0999 V2000
   10.6165   -2.2754    0.0000 S   0  0  0  0  0  0  0  0  0  0  0  0
    9.6244    0.9407    0.0000 O   0  0  0  0  0  0  0  0  0  0  0  0
   11.1798   -1.4491    0.0000 O   0  0  0  0  0  0  0  0  0  0  0  0
   10.0531   -3.1016    0.0000 O   0  0  0  0  0  0  0  0  0  0  0  0
    9.2619    1.6672    0.0000 O   0  0  0  0  0  0  0  0  0  0  0  0
    4.6783    2.5945    0.0000 O   0  0  0  0  0  0  0  0  0  0  0  0
    6.7619    4.2652    0.0000 O   0  0  0  0  0  0  0  0  0  0  0  0
    9.7902   -1.7120    0.0000 N   0  0  3  0  0  0  0  0  0  0  0  0
    7.7619    0.8011    0.0000 N   0  0  0  0  0  0  0  0  0  0  0  0
    6.7619    2.5332    0.0000 N   0  0  0  0  0  0  0  0  0  0  0  0
   11.3680   -3.8359    0.0000 N   0  0  0  0  0  0  0  0  0  0  0  0
    8.9242   -2.2120    0.0000 C   0  0  1  0  0  0  0  0  0  0  0  0
    7.9933   -1.8467    0.0000 C   0  0  0  0  0  0  0  0  0  0  0  0
    7.6986   -0.8911    0.0000 C   0  0  0  0  0  0  0  0  0  0  0  0
    8.2619   -0.0649    0.0000 C   0  0  1  0  0  0  0  0  0  0  0  0
    9.9393   -0.7232    0.0000 C   0  0  0  0  0  0  0  0  0  0  0  0
    9.2591    0.0098    0.0000 C   0  0  0  0  0  0  0  0  0  0  0  0
    8.9989   -3.2092    0.0000 C   0  0  0  0  0  0  0  0  0  0  0  0
    7.7619    2.5332    0.0000 C   0  0  2  0  0  0  0  0  0  0  0  0
    8.2619    1.6672    0.0000 C   0  0  0  0  0  0  0  0  0  0  0  0
    8.2619    3.3992    0.0000 C   0  0  0  0  0  0  0  0  0  0  0  0
    9.2619    3.3992    0.0000 C   0  0  0  0  0  0  0  0  0  0  0  0
   11.4427   -2.8387    0.0000 C   0  0  0  0  0  0  0  0  0  0  0  0
    9.7619    4.2652    0.0000 C   0  0  0  0  0  0  0  0  0  0  0  0
    9.7619    2.5332    0.0000 C   0  0  0  0  0  0  0  0  0  0  0  0
   12.3437   -2.4048    0.0000 C   0  0  0  0  0  0  0  0  0  0  0  0
    6.2619    3.3992    0.0000 C   0  0  0  0  0  0  0  0  0  0  0  0
   13.1699   -2.9681    0.0000 C   0  0  0  0  0  0  0  0  0  0  0  0
    5.2619    3.3992    0.0000 C   0  0  0  0  0  0  0  0  0  0  0  0
   12.1942   -4.3992    0.0000 C   0  0  0  0  0  0  0  0  0  0  0  0
   13.0952   -3.9653    0.0000 C   0  0  0  0  0  0  0  0  0  0  0  0
    4.6783    4.2039    0.0000 C   0  0  0  0  0  0  0  0  0  0  0  0
    3.7320    3.8992    0.0000 C   0  0  0  0  0  0  0  0  0  0  0  0
    3.7320    2.8992    0.0000 C   0  0  0  0  0  0  0  0  0  0  0  0
    2.8660    4.3992    0.0000 C   0  0  0  0  0  0  0  0  0  0  0  0
    2.8660    2.3992    0.0000 C   0  0  0  0  0  0  0  0  0  0  0  0
    2.0000    3.8992    0.0000 C   0  0  0  0  0  0  0  0  0  0  0  0
    2.0000    2.8992    0.0000 C   0  0  0  0  0  0  0  0  0  0  0  0
    9.4723   -2.5018    0.0000 H   0  0  0  0  0  0  0  0  0  0  0  0
    7.3750   -1.8930    0.0000 H   0  0  0  0  0  0  0  0  0  0  0  0
    7.9009   -2.4598    0.0000 H   0  0  0  0  0  0  0  0  0  0  0  0
    7.2768   -0.4366    0.0000 H   0  0  0  0  0  0  0  0  0  0  0  0
    7.1616   -1.2011    0.0000 H   0  0  0  0  0  0  0  0  0  0  0  0
    8.5516    0.4833    0.0000 H   0  0  0  0  0  0  0  0  0  0  0  0
   10.5164   -0.9497    0.0000 H   0  0  0  0  0  0  0  0  0  0  0  0
   10.2885   -0.2109    0.0000 H   0  0  0  0  0  0  0  0  0  0  0  0
    8.3806   -3.2556    0.0000 H   0  0  0  0  0  0  0  0  0  0  0  0
    9.0452   -3.8275    0.0000 H   0  0  0  0  0  0  0  0  0  0  0  0
    9.6172   -3.1629    0.0000 H   0  0  0  0  0  0  0  0  0  0  0  0
    7.1419    0.8011    0.0000 H   0  0  0  0  0  0  0  0  0  0  0  0
    7.4519    1.9962    0.0000 H   0  0  0  0  0  0  0  0  0  0  0  0
    8.3695    4.0098    0.0000 H   0  0  0  0  0  0  0  0  0  0  0  0
    7.6793    3.6113    0.0000 H   0  0  0  0  0  0  0  0  0  0  0  0
    9.8819    3.3992    0.0000 H   0  0  0  0  0  0  0  0  0  0  0  0
    6.4519    1.9962    0.0000 H   0  0  0  0  0  0  0  0  0  0  0  0
   10.2988    3.9552    0.0000 H   0  0  0  0  0  0  0  0  0  0  0  0
   10.0719    4.8022    0.0000 H   0  0  0  0  0  0  0  0  0  0  0  0
    9.2249    4.5752    0.0000 H   0  0  0  0  0  0  0  0  0  0  0  0
    9.2249    2.2232    0.0000 H   0  0  0  0  0  0  0  0  0  0  0  0
   10.0719    1.9962    0.0000 H   0  0  0  0  0  0  0  0  0  0  0  0
   10.2988    2.8432    0.0000 H   0  0  0  0  0  0  0  0  0  0  0  0
   12.3900   -1.7865    0.0000 H   0  0  0  0  0  0  0  0  0  0  0  0
   13.7285   -2.6991    0.0000 H   0  0  0  0  0  0  0  0  0  0  0  0
   12.1479   -5.0175    0.0000 H   0  0  0  0  0  0  0  0  0  0  0  0
   13.6074   -4.3146    0.0000 H   0  0  0  0  0  0  0  0  0  0  0  0
    4.8709    4.7933    0.0000 H   0  0  0  0  0  0  0  0  0  0  0  0
    2.8660    5.0192    0.0000 H   0  0  0  0  0  0  0  0  0  0  0  0
    2.8660    1.7792    0.0000 H   0  0  0  0  0  0  0  0  0  0  0  0
    1.4631    4.2092    0.0000 H   0  0  0  0  0  0  0  0  0  0  0  0
    1.4631    2.5892    0.0000 H   0  0  0  0  0  0  0  0  0  0  0  0
  1  3  2  0  0  0  0
  1  4  2  0  0  0  0
  1  8  1  0  0  0  0
  1 23  1  0  0  0  0
  2 17  2  0  0  0  0
  5 20  2  0  0  0  0
  6 29  1  0  0  0  0
  6 34  1  0  0  0  0
  7 27  2  0  0  0  0
  8 12  1  0  0  0  0
  8 16  1  0  0  0  0
 15  9  1  6  0  0  0
  9 20  1  0  0  0  0
  9 50  1  0  0  0  0
 19 10  1  1  0  0  0
 10 27  1  0  0  0  0
 10 55  1  0  0  0  0
 11 23  1  0  0  0  0
 11 30  2  0  0  0  0
 12 13  1  0  0  0  0
 12 18  1  6  0  0  0
 12 39  1  0  0  0  0
 13 14  1  0  0  0  0
 13 40  1  0  0  0  0
 13 41  1  0  0  0  0
 14 15  1  0  0  0  0
 14 42  1  0  0  0  0
 14 43  1  0  0  0  0
 15 17  1  0  0  0  0
 15 44  1  0  0  0  0
 16 17  1  0  0  0  0
 16 45  1  0  0  0  0
 16 46  1  0  0  0  0
 18 47  1  0  0  0  0
 18 48  1  0  0  0  0
 18 49  1  0  0  0  0
 19 20  1  0  0  0  0
 19 21  1  0  0  0  0
 19 51  1  0  0  0  0
 21 22  1  0  0  0  0
 21 52  1  0  0  0  0
 21 53  1  0  0  0  0
 22 24  1  0  0  0  0
 22 25  1  0  0  0  0
 22 54  1  0  0  0  0
 23 26  2  0  0  0  0
 24 56  1  0  0  0  0
 24 57  1  0  0  0  0
 24 58  1  0  0  0  0
 25 59  1  0  0  0  0
 25 60  1  0  0  0  0
 25 61  1  0  0  0  0
 26 28  1  0  0  0  0
 26 62  1  0  0  0  0
 27 29  1  0  0  0  0
 28 31  2  0  0  0  0
 28 63  1  0  0  0  0
 29 32  2  0  0  0  0
 30 31  1  0  0  0  0
 30 64  1  0  0  0  0
 31 65  1  0  0  0  0
 32 33  1  0  0  0  0
 32 66  1  0  0  0  0
 33 34  1  0  0  0  0
 33 35  2  0  0  0  0
 34 36  2  0  0  0  0
 35 37  1  0  0  0  0
 35 67  1  0  0  0  0
 36 38  1  0  0  0  0
 36 68  1  0  0  0  0
 37 38  2  0  0  0  0
 37 69  1  0  0  0  0
 38 70  1  0  0  0  0
M  END
> <PUBCHEM_COMPOUND_CID>
6918602

> <PUBCHEM_COMPOUND_CANONICALIZED>
1

> <PUBCHEM_CACTVS_COMPLEXITY>
967

> <PUBCHEM_CACTVS_HBOND_ACCEPTOR>
8

> <PUBCHEM_CACTVS_HBOND_DONOR>
2

> <PUBCHEM_CACTVS_ROTATABLE_BOND>
8

> <PUBCHEM_CACTVS_SUBSKEYS>
AAADcfB7uABAAAAAAAAAAAAAAAAAASAAAAA8QAAABYAAAEgB/AAAHgQQQAAADSzB2gQ+h9LIFEKoArF3VHLK2DA1IiAI2Ln+bNgOZvLE9b+XOSjk1hHY6YeY36L+AAAAAAAIAAAAAAAAABAAAAAAAAAAAA==

> <PUBCHEM_IUPAC_OPENEYE_NAME>
N-[(1S)-3-methyl-1-[[(4S,7R)-7-methyl-3-oxo-1-(2-pyridylsulfonyl)azepan-4-yl]carbamoyl]butyl]benzofuran-2-carboxamide

> <PUBCHEM_IUPAC_CAS_NAME>
N-[(2S)-4-methyl-1-[[(4S,7R)-7-methyl-3-oxo-1-(2-pyridinylsulfonyl)-4-azepanyl]amino]-1-oxopentan-2-yl]-2-benzofurancarboxamide

> <PUBCHEM_IUPAC_NAME_MARKUP>
<I>N</I>-[(2<I>S</I>)-4-methyl-1-[[(4<I>S</I>,7<I>R</I>)-7-methyl-3-oxo-1-pyridin-2-ylsulfonylazepan-4-yl]amino]-1-oxopentan-2-yl]-1-benzofuran-2-carboxamide

> <PUBCHEM_IUPAC_NAME>
N-[(2S)-4-methyl-1-[[(4S,7R)-7-methyl-3-oxo-1-pyridin-2-ylsulfonylazepan-4-yl]amino]-1-oxopentan-2-yl]-1-benzofuran-2-carboxamide

> <PUBCHEM_IUPAC_SYSTEMATIC_NAME>
N-[(2S)-4-methyl-1-[[(4S,7R)-7-methyl-3-oxidanylidene-1-pyridin-2-ylsulfonyl-azepan-4-yl]amino]-1-oxidanylidene-pentan-2-yl]-1-benzofuran-2-carboxamide

> <PUBCHEM_IUPAC_TRADITIONAL_NAME>
N-[(1S)-1-[[(4S,7R)-3-keto-7-methyl-1-(2-pyridylsulfonyl)azepan-4-yl]carbamoyl]-3-methyl-butyl]coumarilamide

> <PUBCHEM_IUPAC_INCHI>
InChI=1S/C27H32N4O6S/c1-17(2)14-21(30-27(34)24-15-19-8-4-5-9-23(19)37-24)26(33)29-20-12-11-18(3)31(16-22(20)32)38(35,36)25-10-6-7-13-28-25/h4-10,13,15,17-18,20-21H,11-12,14,16H2,1-3H3,(H,29,33)(H,30,34)/t18-,20+,21+/m1/s1

> <PUBCHEM_IUPAC_INCHIKEY>
BWYBBMQLUKXECQ-GIVPXCGWSA-N

> <PUBCHEM_XLOGP3_AA>
3.9

> <PUBCHEM_EXACT_MASS>
540.204256

> <PUBCHEM_MOLECULAR_FORMULA>
C27H32N4O6S

> <PUBCHEM_MOLECULAR_WEIGHT>
540.6

> <PUBCHEM_OPENEYE_CAN_SMILES>
CC1CCC(C(=O)CN1S(=O)(=O)C2=CC=CC=N2)NC(=O)C(CC(C)C)NC(=O)C3=CC4=CC=CC=C4O3

> <PUBCHEM_OPENEYE_ISO_SMILES>
C[C@@H]1CC[C@@H](C(=O)CN1S(=O)(=O)C2=CC=CC=N2)NC(=O)[C@H](CC(C)C)NC(=O)C3=CC4=CC=CC=C4O3

> <PUBCHEM_CACTVS_TPSA>
147

> <PUBCHEM_MONOISOTOPIC_WEIGHT>
540.204256

> <PUBCHEM_TOTAL_CHARGE>
0

> <PUBCHEM_HEAVY_ATOM_COUNT>
38

> <PUBCHEM_ATOM_DEF_STEREO_COUNT>
3

> <PUBCHEM_ATOM_UDEF_STEREO_COUNT>
0

> <PUBCHEM_BOND_DEF_STEREO_COUNT>
0

> <PUBCHEM_BOND_UDEF_STEREO_COUNT>
0

> <PUBCHEM_ISOTOPIC_ATOM_COUNT>
0

> <PUBCHEM_COMPONENT_COUNT>
1

> <PUBCHEM_CACTVS_TAUTO_COUNT>
-1

> <PUBCHEM_COORDINATE_TYPE>
1
5
255

> <PUBCHEM_BONDANNOTATIONS>
19  10  5
11  23  8
11  30  8
12  18  6
23  26  8
26  28  8
28  31  8
29  32  8
30  31  8
32  33  8
33  34  8
33  35  8
34  36  8
35  37  8
36  38  8
37  38  8
6  29  8
6  34  8
15  9  6

$$$$
