7058063
  -OEChem-05242006122D

 24 25  0     1  0  0  0  0  0999 V2000
    3.7320   -1.5173    0.0000 O   0  0  0  0  0  0  0  0  0  0  0  0
    2.8660   -0.0173    0.0000 C   0  0  1  0  0  0  0  0  0  0  0  0
    2.8660    0.9827    0.0000 C   0  0  0  0  0  0  0  0  0  0  0  0
    3.7320    1.4827    0.0000 C   0  0  0  0  0  0  0  0  0  0  0  0
    4.5981    0.9827    0.0000 C   0  0  0  0  0  0  0  0  0  0  0  0
    3.7320   -0.5173    0.0000 C   0  0  0  0  0  0  0  0  0  0  0  0
    4.5981   -0.0173    0.0000 C   0  0  0  0  0  0  0  0  0  0  0  0
    2.0000   -0.5173    0.0000 C   0  0  0  0  0  0  0  0  0  0  0  0
    5.4920    1.5173    0.0000 C   0  0  0  0  0  0  0  0  0  0  0  0
    5.4920   -0.5520    0.0000 C   0  0  0  0  0  0  0  0  0  0  0  0
    6.3981    1.0035    0.0000 C   0  0  0  0  0  0  0  0  0  0  0  0
    6.3981   -0.0381    0.0000 C   0  0  0  0  0  0  0  0  0  0  0  0
    2.8660   -0.6373    0.0000 H   0  0  0  0  0  0  0  0  0  0  0  0
    2.6540    1.5653    0.0000 H   0  0  0  0  0  0  0  0  0  0  0  0
    2.2554    0.8750    0.0000 H   0  0  0  0  0  0  0  0  0  0  0  0
    4.1306    1.9576    0.0000 H   0  0  0  0  0  0  0  0  0  0  0  0
    3.3335    1.9576    0.0000 H   0  0  0  0  0  0  0  0  0  0  0  0
    1.6900    0.0196    0.0000 H   0  0  0  0  0  0  0  0  0  0  0  0
    1.4631   -0.8273    0.0000 H   0  0  0  0  0  0  0  0  0  0  0  0
    2.3100   -1.0543    0.0000 H   0  0  0  0  0  0  0  0  0  0  0  0
    5.4848    2.1373    0.0000 H   0  0  0  0  0  0  0  0  0  0  0  0
    5.4848   -1.1720    0.0000 H   0  0  0  0  0  0  0  0  0  0  0  0
    6.9338    1.3156    0.0000 H   0  0  0  0  0  0  0  0  0  0  0  0
    6.9338   -0.3502    0.0000 H   0  0  0  0  0  0  0  0  0  0  0  0
  1  6  2  0  0  0  0
  2  3  1  0  0  0  0
  2  6  1  0  0  0  0
  2  8  1  1  0  0  0
  2 13  1  0  0  0  0
  3  4  1  0  0  0  0
  3 14  1  0  0  0  0
  3 15  1  0  0  0  0
  4  5  1  0  0  0  0
  4 16  1  0  0  0  0
  4 17  1  0  0  0  0
  5  7  1  0  0  0  0
  5  9  2  0  0  0  0
  6  7  1  0  0  0  0
  7 10  2  0  0  0  0
  8 18  1  0  0  0  0
  8 19  1  0  0  0  0
  8 20  1  0  0  0  0
  9 11  1  0  0  0  0
  9 21  1  0  0  0  0
 10 12  1  0  0  0  0
 10 22  1  0  0  0  0
 11 12  2  0  0  0  0
 11 23  1  0  0  0  0
 12 24  1  0  0  0  0
M  END
> <PUBCHEM_COMPOUND_CID>
7058063

> <PUBCHEM_COMPOUND_CANONICALIZED>
1

> <PUBCHEM_CACTVS_COMPLEXITY>
185

> <PUBCHEM_CACTVS_HBOND_ACCEPTOR>
1

> <PUBCHEM_CACTVS_HBOND_DONOR>
0

> <PUBCHEM_CACTVS_ROTATABLE_BOND>
0

> <PUBCHEM_CACTVS_SUBSKEYS>
AAADccBwIAAAAAAAAAAAAAAAAAAAAAAAAAAwYAAAAAAAAADBAAAAGgAAAAAADQSAmAAyAIAAAACIAqBSAAACAAAkAAAIiAEAAMgIIDKAFRCAIQAggAAIiYcIiMCOgAAAAAAQAACAAAQAACAAAAAAAAAAAA==

> <PUBCHEM_IUPAC_OPENEYE_NAME>
(2S)-2-methyltetralin-1-one

> <PUBCHEM_IUPAC_CAS_NAME>
(2S)-2-methyl-3,4-dihydro-2H-naphthalen-1-one

> <PUBCHEM_IUPAC_NAME_MARKUP>
(2<I>S</I>)-2-methyl-3,4-dihydro-2<I>H</I>-naphthalen-1-one

> <PUBCHEM_IUPAC_NAME>
(2S)-2-methyl-3,4-dihydro-2H-naphthalen-1-one

> <PUBCHEM_IUPAC_SYSTEMATIC_NAME>
(2S)-2-methyl-3,4-dihydro-2H-naphthalen-1-one

> <PUBCHEM_IUPAC_TRADITIONAL_NAME>
(2S)-2-methyltetralin-1-one

> <PUBCHEM_IUPAC_INCHI>
InChI=1S/C11H12O/c1-8-6-7-9-4-2-3-5-10(9)11(8)12/h2-5,8H,6-7H2,1H3/t8-/m0/s1

> <PUBCHEM_IUPAC_INCHIKEY>
GANIBVZSZGNMNB-QMMMGPOBSA-N

> <PUBCHEM_XLOGP3_AA>
2.6

> <PUBCHEM_EXACT_MASS>
160.088815

> <PUBCHEM_MOLECULAR_FORMULA>
C11H12O

> <PUBCHEM_MOLECULAR_WEIGHT>
160.21

> <PUBCHEM_OPENEYE_CAN_SMILES>
CC1CCC2=CC=CC=C2C1=O

> <PUBCHEM_OPENEYE_ISO_SMILES>
C[C@H]1CCC2=CC=CC=C2C1=O

> <PUBCHEM_CACTVS_TPSA>
17.1

> <PUBCHEM_MONOISOTOPIC_WEIGHT>
160.088815

> <PUBCHEM_TOTAL_CHARGE>
0

> <PUBCHEM_HEAVY_ATOM_COUNT>
12

> <PUBCHEM_ATOM_DEF_STEREO_COUNT>
1

> <PUBCHEM_ATOM_UDEF_STEREO_COUNT>
0

> <PUBCHEM_BOND_DEF_STEREO_COUNT>
0

> <PUBCHEM_BOND_UDEF_STEREO_COUNT>
0

> <PUBCHEM_ISOTOPIC_ATOM_COUNT>
0

> <PUBCHEM_COMPONENT_COUNT>
1

> <PUBCHEM_CACTVS_TAUTO_COUNT>
-1

> <PUBCHEM_COORDINATE_TYPE>
1
5
255

> <PUBCHEM_BONDANNOTATIONS>
10  12  8
11  12  8
2  8  5
5  7  8
5  9  8
7  10  8
9  11  8

$$$$
