7063878
  -OEChem-05242006122D

 24 25  0     0  0  0  0  0  0999 V2000
    6.7619   -0.6970    0.0000 S   0  0  0  0  0  0  0  0  0  0  0  0
    7.6279   -0.1970    0.0000 O   0  0  0  0  0  0  0  0  0  0  0  0
    5.8958   -1.1970    0.0000 O   0  0  0  0  0  0  0  0  0  0  0  0
    4.6783    0.9737    0.0000 N   0  0  0  0  0  0  0  0  0  0  0  0
    4.6783   -0.6357    0.0000 N   0  0  0  0  0  0  0  0  0  0  0  0
    6.2619    0.1690    0.0000 C   0  0  0  0  0  0  0  0  0  0  0  0
    5.2619    0.1690    0.0000 C   0  0  0  0  0  0  0  0  0  0  0  0
    3.7320    0.6690    0.0000 C   0  0  0  0  0  0  0  0  0  0  0  0
    3.7320   -0.3310    0.0000 C   0  0  0  0  0  0  0  0  0  0  0  0
    7.2619   -1.5630    0.0000 C   0  0  0  0  0  0  0  0  0  0  0  0
    2.8660    1.1690    0.0000 C   0  0  0  0  0  0  0  0  0  0  0  0
    2.8660   -0.8310    0.0000 C   0  0  0  0  0  0  0  0  0  0  0  0
    2.0000    0.6690    0.0000 C   0  0  0  0  0  0  0  0  0  0  0  0
    2.0000   -0.3310    0.0000 C   0  0  0  0  0  0  0  0  0  0  0  0
    6.8445    0.3810    0.0000 H   0  0  0  0  0  0  0  0  0  0  0  0
    6.1542    0.7796    0.0000 H   0  0  0  0  0  0  0  0  0  0  0  0
    4.8709    1.5630    0.0000 H   0  0  0  0  0  0  0  0  0  0  0  0
    6.7249   -1.8730    0.0000 H   0  0  0  0  0  0  0  0  0  0  0  0
    7.5719   -2.1000    0.0000 H   0  0  0  0  0  0  0  0  0  0  0  0
    7.7988   -1.2530    0.0000 H   0  0  0  0  0  0  0  0  0  0  0  0
    2.8660    1.7890    0.0000 H   0  0  0  0  0  0  0  0  0  0  0  0
    2.8660   -1.4510    0.0000 H   0  0  0  0  0  0  0  0  0  0  0  0
    1.4631    0.9790    0.0000 H   0  0  0  0  0  0  0  0  0  0  0  0
    1.4631   -0.6410    0.0000 H   0  0  0  0  0  0  0  0  0  0  0  0
  1  2  2  0  0  0  0
  1  3  2  0  0  0  0
  1  6  1  0  0  0  0
  1 10  1  0  0  0  0
  4  7  1  0  0  0  0
  4  8  1  0  0  0  0
  4 17  1  0  0  0  0
  5  7  2  0  0  0  0
  5  9  1  0  0  0  0
  6  7  1  0  0  0  0
  6 15  1  0  0  0  0
  6 16  1  0  0  0  0
  8  9  1  0  0  0  0
  8 11  2  0  0  0  0
  9 12  2  0  0  0  0
 10 18  1  0  0  0  0
 10 19  1  0  0  0  0
 10 20  1  0  0  0  0
 11 13  1  0  0  0  0
 11 21  1  0  0  0  0
 12 14  1  0  0  0  0
 12 22  1  0  0  0  0
 13 14  2  0  0  0  0
 13 23  1  0  0  0  0
 14 24  1  0  0  0  0
M  END
> <PUBCHEM_COMPOUND_CID>
7063878

> <PUBCHEM_COMPOUND_CANONICALIZED>
1

> <PUBCHEM_CACTVS_COMPLEXITY>
296

> <PUBCHEM_CACTVS_HBOND_ACCEPTOR>
3

> <PUBCHEM_CACTVS_HBOND_DONOR>
1

> <PUBCHEM_CACTVS_ROTATABLE_BOND>
2

> <PUBCHEM_CACTVS_SUBSKEYS>
AAADccBzMABAAAAAAAAAAAAAAAAAAWAAAAAwAAAAAAAAAFgB8AAAHAQQAAAACAiFVwCz0LbJkAqgASZiZHDCgC2hErAJmSAwdJiIaKLAmZGUIAhokALIyCcQAAAAAAAAAAAAACAAAAAAAAAAQAAAAAAAAA==

> <PUBCHEM_IUPAC_OPENEYE_NAME>
2-(methylsulfonylmethyl)-1H-benzimidazole

> <PUBCHEM_IUPAC_CAS_NAME>
2-(methylsulfonylmethyl)-1H-benzimidazole

> <PUBCHEM_IUPAC_NAME_MARKUP>
2-(methylsulfonylmethyl)-1<I>H</I>-benzimidazole

> <PUBCHEM_IUPAC_NAME>
2-(methylsulfonylmethyl)-1H-benzimidazole

> <PUBCHEM_IUPAC_SYSTEMATIC_NAME>
2-(methylsulfonylmethyl)-1H-benzimidazole

> <PUBCHEM_IUPAC_TRADITIONAL_NAME>
2-(mesylmethyl)-1H-benzimidazole

> <PUBCHEM_IUPAC_INCHI>
InChI=1S/C9H10N2O2S/c1-14(12,13)6-9-10-7-4-2-3-5-8(7)11-9/h2-5H,6H2,1H3,(H,10,11)

> <PUBCHEM_IUPAC_INCHIKEY>
WCWTYTQSZZWNEW-UHFFFAOYSA-N

> <PUBCHEM_XLOGP3>
1

> <PUBCHEM_EXACT_MASS>
210.046299

> <PUBCHEM_MOLECULAR_FORMULA>
C9H10N2O2S

> <PUBCHEM_MOLECULAR_WEIGHT>
210.26

> <PUBCHEM_OPENEYE_CAN_SMILES>
CS(=O)(=O)CC1=NC2=CC=CC=C2N1

> <PUBCHEM_OPENEYE_ISO_SMILES>
CS(=O)(=O)CC1=NC2=CC=CC=C2N1

> <PUBCHEM_CACTVS_TPSA>
71.2

> <PUBCHEM_MONOISOTOPIC_WEIGHT>
210.046299

> <PUBCHEM_TOTAL_CHARGE>
0

> <PUBCHEM_HEAVY_ATOM_COUNT>
14

> <PUBCHEM_ATOM_DEF_STEREO_COUNT>
0

> <PUBCHEM_ATOM_UDEF_STEREO_COUNT>
0

> <PUBCHEM_BOND_DEF_STEREO_COUNT>
0

> <PUBCHEM_BOND_UDEF_STEREO_COUNT>
0

> <PUBCHEM_ISOTOPIC_ATOM_COUNT>
0

> <PUBCHEM_COMPONENT_COUNT>
1

> <PUBCHEM_CACTVS_TAUTO_COUNT>
-1

> <PUBCHEM_COORDINATE_TYPE>
1
5
255

> <PUBCHEM_BONDANNOTATIONS>
11  13  8
12  14  8
13  14  8
4  7  8
4  8  8
5  7  8
5  9  8
8  11  8
8  9  8
9  12  8

$$$$
