70945511
  -OEChem-05242006102D

 65 67  0     1  0  0  0  0  0999 V2000
    3.8660    2.3170    0.0000 S   0  0  0  0  0  0  0  0  0  0  0  0
    2.1340    0.3170    0.0000 F   0  0  0  0  0  0  0  0  0  0  0  0
    3.5000    0.6830    0.0000 F   0  0  0  0  0  0  0  0  0  0  0  0
    2.5000   -1.0490    0.0000 F   0  0  0  0  0  0  0  0  0  0  0  0
    3.8660   -4.6830    0.0000 F   0  0  0  0  0  0  0  0  0  0  0  0
    2.8660    2.3170    0.0000 O   0  0  0  0  0  0  0  0  0  0  0  0
    4.8660    2.3170    0.0000 O   0  0  0  0  0  0  0  0  0  0  0  0
    5.5981    2.3170    0.0000 O   0  0  0  0  0  0  0  0  0  0  0  0
    9.0622    2.3170    0.0000 O   0  0  0  0  0  0  0  0  0  0  0  0
    8.1962   -0.1830    0.0000 O   0  0  0  0  0  0  0  0  0  0  0  0
    9.9282    0.8170    0.0000 N   0  0  0  0  0  0  0  0  0  0  0  0
    4.7320   -0.1830    0.0000 N   0  0  0  0  0  0  0  0  0  0  0  0
    6.4641    0.8170    0.0000 N   0  0  0  0  0  0  0  0  0  0  0  0
    3.0000    3.8170    0.0000 C   0  0  0  0  0  0  0  0  0  0  0  0
    2.5000    4.6830    0.0000 C   0  0  0  0  0  0  0  0  0  0  0  0
    2.0000    3.8170    0.0000 C   0  0  0  0  0  0  0  0  0  0  0  0
    3.8660    3.3170    0.0000 C   0  0  0  0  0  0  0  0  0  0  0  0
    3.8660    1.3170    0.0000 C   0  0  0  0  0  0  0  0  0  0  0  0
   10.7942    1.3170    0.0000 C   0  0  0  0  0  0  0  0  0  0  0  0
   11.2942    2.1830    0.0000 C   0  0  0  0  0  0  0  0  0  0  0  0
   11.7942    1.3170    0.0000 C   0  0  0  0  0  0  0  0  0  0  0  0
    4.7320    0.8170    0.0000 C   0  0  1  0  0  0  0  0  0  0  0  0
    5.5981    1.3170    0.0000 C   0  0  0  0  0  0  0  0  0  0  0  0
    3.8660   -0.6830    0.0000 C   0  0  1  0  0  0  0  0  0  0  0  0
    7.3301    1.3170    0.0000 C   0  0  2  0  0  0  0  0  0  0  0  0
    9.0622    1.3170    0.0000 C   0  0  0  0  0  0  0  0  0  0  0  0
    8.1962    0.8170    0.0000 C   0  0  0  0  0  0  0  0  0  0  0  0
    7.3301    2.3170    0.0000 C   0  0  0  0  0  0  0  0  0  0  0  0
    3.8660   -1.6830    0.0000 C   0  0  0  0  0  0  0  0  0  0  0  0
    3.0000   -0.1830    0.0000 C   0  0  0  0  0  0  0  0  0  0  0  0
    8.1962    2.8170    0.0000 C   0  0  0  0  0  0  0  0  0  0  0  0
    4.7320   -2.1830    0.0000 C   0  0  0  0  0  0  0  0  0  0  0  0
    3.0000   -2.1830    0.0000 C   0  0  0  0  0  0  0  0  0  0  0  0
    4.7320   -3.1830    0.0000 C   0  0  0  0  0  0  0  0  0  0  0  0
    3.0000   -3.1830    0.0000 C   0  0  0  0  0  0  0  0  0  0  0  0
    3.8660   -3.6830    0.0000 C   0  0  0  0  0  0  0  0  0  0  0  0
    3.4384    4.2554    0.0000 H   0  0  0  0  0  0  0  0  0  0  0  0
    2.9750    5.0815    0.0000 H   0  0  0  0  0  0  0  0  0  0  0  0
    2.0250    5.0815    0.0000 H   0  0  0  0  0  0  0  0  0  0  0  0
    1.4174    4.0290    0.0000 H   0  0  0  0  0  0  0  0  0  0  0  0
    1.8923    3.2064    0.0000 H   0  0  0  0  0  0  0  0  0  0  0  0
    4.4766    3.2093    0.0000 H   0  0  0  0  0  0  0  0  0  0  0  0
    4.0781    3.8996    0.0000 H   0  0  0  0  0  0  0  0  0  0  0  0
    3.2554    1.4246    0.0000 H   0  0  0  0  0  0  0  0  0  0  0  0
    3.6540    0.7344    0.0000 H   0  0  0  0  0  0  0  0  0  0  0  0
   10.3558    1.7554    0.0000 H   0  0  0  0  0  0  0  0  0  0  0  0
   11.7692    2.5815    0.0000 H   0  0  0  0  0  0  0  0  0  0  0  0
   10.8193    2.5815    0.0000 H   0  0  0  0  0  0  0  0  0  0  0  0
   11.9019    0.7064    0.0000 H   0  0  0  0  0  0  0  0  0  0  0  0
   12.3768    1.5290    0.0000 H   0  0  0  0  0  0  0  0  0  0  0  0
    5.2690    0.5070    0.0000 H   0  0  0  0  0  0  0  0  0  0  0  0
    9.9282    0.1970    0.0000 H   0  0  0  0  0  0  0  0  0  0  0  0
    5.2690   -0.4930    0.0000 H   0  0  0  0  0  0  0  0  0  0  0  0
    3.8660   -0.0630    0.0000 H   0  0  0  0  0  0  0  0  0  0  0  0
    7.3301    0.6970    0.0000 H   0  0  0  0  0  0  0  0  0  0  0  0
    6.4641    0.1970    0.0000 H   0  0  0  0  0  0  0  0  0  0  0  0
    7.1181    2.8996    0.0000 H   0  0  0  0  0  0  0  0  0  0  0  0
    6.7196    2.2093    0.0000 H   0  0  0  0  0  0  0  0  0  0  0  0
    8.5062    2.2800    0.0000 H   0  0  0  0  0  0  0  0  0  0  0  0
    8.7331    3.1270    0.0000 H   0  0  0  0  0  0  0  0  0  0  0  0
    7.8862    3.3539    0.0000 H   0  0  0  0  0  0  0  0  0  0  0  0
    5.2690   -1.8730    0.0000 H   0  0  0  0  0  0  0  0  0  0  0  0
    2.4631   -1.8730    0.0000 H   0  0  0  0  0  0  0  0  0  0  0  0
    5.2690   -3.4930    0.0000 H   0  0  0  0  0  0  0  0  0  0  0  0
    2.4631   -3.4930    0.0000 H   0  0  0  0  0  0  0  0  0  0  0  0
  1  6  2  0  0  0  0
  1  7  2  0  0  0  0
  1 17  1  0  0  0  0
  1 18  1  0  0  0  0
  2 30  1  0  0  0  0
  3 30  1  0  0  0  0
  4 30  1  0  0  0  0
  5 36  1  0  0  0  0
  8 23  2  0  0  0  0
  9 26  2  0  0  0  0
 10 27  2  0  0  0  0
 11 19  1  0  0  0  0
 11 26  1  0  0  0  0
 11 52  1  0  0  0  0
 22 12  1  1  0  0  0
 24 12  1  1  0  0  0
 12 53  1  0  0  0  0
 13 23  1  0  0  0  0
 25 13  1  1  0  0  0
 13 56  1  0  0  0  0
 14 15  1  0  0  0  0
 14 16  1  0  0  0  0
 14 17  1  0  0  0  0
 14 37  1  0  0  0  0
 15 16  1  0  0  0  0
 15 38  1  0  0  0  0
 15 39  1  0  0  0  0
 16 40  1  0  0  0  0
 16 41  1  0  0  0  0
 17 42  1  0  0  0  0
 17 43  1  0  0  0  0
 18 22  1  0  0  0  0
 18 44  1  0  0  0  0
 18 45  1  0  0  0  0
 19 20  1  0  0  0  0
 19 21  1  0  0  0  0
 19 46  1  0  0  0  0
 20 21  1  0  0  0  0
 20 47  1  0  0  0  0
 20 48  1  0  0  0  0
 21 49  1  0  0  0  0
 21 50  1  0  0  0  0
 22 23  1  0  0  0  0
 22 51  1  0  0  0  0
 24 29  1  0  0  0  0
 24 30  1  0  0  0  0
 24 54  1  0  0  0  0
 25 27  1  0  0  0  0
 25 28  1  0  0  0  0
 25 55  1  0  0  0  0
 26 27  1  0  0  0  0
 28 31  1  0  0  0  0
 28 57  1  0  0  0  0
 28 58  1  0  0  0  0
 29 32  2  0  0  0  0
 29 33  1  0  0  0  0
 31 59  1  0  0  0  0
 31 60  1  0  0  0  0
 31 61  1  0  0  0  0
 32 34  1  0  0  0  0
 32 62  1  0  0  0  0
 33 35  2  0  0  0  0
 33 63  1  0  0  0  0
 34 36  2  0  0  0  0
 34 64  1  0  0  0  0
 35 36  1  0  0  0  0
 35 65  1  0  0  0  0
M  END
> <PUBCHEM_COMPOUND_CID>
70945511

> <PUBCHEM_COMPOUND_CANONICALIZED>
1

> <PUBCHEM_CACTVS_COMPLEXITY>
908

> <PUBCHEM_CACTVS_HBOND_ACCEPTOR>
10

> <PUBCHEM_CACTVS_HBOND_DONOR>
3

> <PUBCHEM_CACTVS_ROTATABLE_BOND>
13

> <PUBCHEM_CACTVS_SUBSKEYS>
AAADceB7OcBAAAAAAAAAAAAAGDAAAAAAAAAwAAAAAAAAAAABAAAAHwQQAAAADSzF2ByyAILAAAqIAqFSEHDCAAAgABAIiIGIBIgIYDqg0TGUIAhglgCoiAcYgIAOAAAAAAAAAAAAAAAAAAAAAAAAAAAAAA==

> <PUBCHEM_IUPAC_OPENEYE_NAME>
(3S)-N-cyclopropyl-3-[[(2R)-3-(cyclopropylmethylsulfonyl)-2-[[(1S)-2,2,2-trifluoro-1-(4-fluorophenyl)ethyl]amino]propanoyl]amino]-2-oxo-pentanamide

> <PUBCHEM_IUPAC_CAS_NAME>
(3S)-N-cyclopropyl-3-[[(2R)-3-(cyclopropylmethylsulfonyl)-1-oxo-2-[[(1S)-2,2,2-trifluoro-1-(4-fluorophenyl)ethyl]amino]propyl]amino]-2-oxopentanamide

> <PUBCHEM_IUPAC_NAME_MARKUP>
(3<I>S</I>)-<I>N</I>-cyclopropyl-3-[[(2<I>R</I>)-3-(cyclopropylmethylsulfonyl)-2-[[(1<I>S</I>)-2,2,2-trifluoro-1-(4-fluorophenyl)ethyl]amino]propanoyl]amino]-2-oxopentanamide

> <PUBCHEM_IUPAC_NAME>
(3S)-N-cyclopropyl-3-[[(2R)-3-(cyclopropylmethylsulfonyl)-2-[[(1S)-2,2,2-trifluoro-1-(4-fluorophenyl)ethyl]amino]propanoyl]amino]-2-oxopentanamide

> <PUBCHEM_IUPAC_SYSTEMATIC_NAME>
(3S)-N-cyclopropyl-3-[[(2R)-3-(cyclopropylmethylsulfonyl)-2-[[(1S)-2,2,2-tris(fluoranyl)-1-(4-fluorophenyl)ethyl]amino]propanoyl]amino]-2-oxidanylidene-pentanamide

> <PUBCHEM_IUPAC_TRADITIONAL_NAME>
(3S)-N-cyclopropyl-3-[[(2R)-3-(cyclopropylmethylsulfonyl)-2-[[(1S)-2,2,2-trifluoro-1-(4-fluorophenyl)ethyl]amino]propanoyl]amino]-2-keto-valeramide

> <PUBCHEM_IUPAC_INCHI>
InChI=1S/C23H29F4N3O5S/c1-2-17(19(31)22(33)28-16-9-10-16)30-21(32)18(12-36(34,35)11-13-3-4-13)29-20(23(25,26)27)14-5-7-15(24)8-6-14/h5-8,13,16-18,20,29H,2-4,9-12H2,1H3,(H,28,33)(H,30,32)/t17-,18-,20-/m0/s1

> <PUBCHEM_IUPAC_INCHIKEY>
PPUXXDKQNAHHON-BJLQDIEVSA-N

> <PUBCHEM_XLOGP3_AA>
2.7

> <PUBCHEM_EXACT_MASS>
535.176405

> <PUBCHEM_MOLECULAR_FORMULA>
C23H29F4N3O5S

> <PUBCHEM_MOLECULAR_WEIGHT>
535.6

> <PUBCHEM_OPENEYE_CAN_SMILES>
CCC(C(=O)C(=O)NC1CC1)NC(=O)C(CS(=O)(=O)CC2CC2)NC(C3=CC=C(C=C3)F)C(F)(F)F

> <PUBCHEM_OPENEYE_ISO_SMILES>
CC[C@@H](C(=O)C(=O)NC1CC1)NC(=O)[C@H](CS(=O)(=O)CC2CC2)N[C@@H](C3=CC=C(C=C3)F)C(F)(F)F

> <PUBCHEM_CACTVS_TPSA>
130

> <PUBCHEM_MONOISOTOPIC_WEIGHT>
535.176405

> <PUBCHEM_TOTAL_CHARGE>
0

> <PUBCHEM_HEAVY_ATOM_COUNT>
36

> <PUBCHEM_ATOM_DEF_STEREO_COUNT>
3

> <PUBCHEM_ATOM_UDEF_STEREO_COUNT>
0

> <PUBCHEM_BOND_DEF_STEREO_COUNT>
0

> <PUBCHEM_BOND_UDEF_STEREO_COUNT>
0

> <PUBCHEM_ISOTOPIC_ATOM_COUNT>
0

> <PUBCHEM_COMPONENT_COUNT>
1

> <PUBCHEM_CACTVS_TAUTO_COUNT>
-1

> <PUBCHEM_COORDINATE_TYPE>
1
5
255

> <PUBCHEM_BONDANNOTATIONS>
22  12  5
24  12  5
25  13  5
29  32  8
29  33  8
32  34  8
33  35  8
34  36  8
35  36  8

$$$$
