71449007
  -OEChem-05242006132D

255250  0     1  0  0  0  0  0999 V2000
    3.0739   20.4900    0.0000 Na  0  3  0  0  0  0  0  0  0  0  0  0
   23.8254    0.0000    0.0000 Na  0  3  0  0  0  0  0  0  0  0  0  0
   13.4942   11.6118    0.0000 Na  0  3  0  0  0  0  0  0  0  0  0  0
   23.8254   14.6200    0.0000 Na  0  3  0  0  0  0  0  0  0  0  0  0
    3.0739   11.3331    0.0000 Na  0  3  0  0  0  0  0  0  0  0  0  0
   13.4942   20.7688    0.0000 Na  0  3  0  0  0  0  0  0  0  0  0  0
   17.7632    5.5000    0.0000 O   0  0  0  0  0  0  0  0  0  0  0  0
   17.7632   20.1200    0.0000 O   0  0  0  0  0  0  0  0  0  0  0  0
   18.6292    7.0000    0.0000 O   0  0  0  0  0  0  0  0  0  0  0  0
   18.6292   21.6200    0.0000 O   0  0  0  0  0  0  0  0  0  0  0  0
    7.4040   18.9900    0.0000 O   0  0  0  0  0  0  0  0  0  0  0  0
    7.4040    9.8331    0.0000 O   0  0  0  0  0  0  0  0  0  0  0  0
   22.9593    4.5000    0.0000 O   0  0  0  0  0  0  0  0  0  0  0  0
   22.9593   19.1200    0.0000 O   0  0  0  0  0  0  0  0  0  0  0  0
    3.9399   20.9900    0.0000 O   0  5  0  0  0  0  0  0  0  0  0  0
    3.9399   11.8331    0.0000 O   0  5  0  0  0  0  0  0  0  0  0  0
    4.8059   19.4900    0.0000 O   0  0  0  0  0  0  0  0  0  0  0  0
    4.8059   10.3331    0.0000 O   0  0  0  0  0  0  0  0  0  0  0  0
   23.8254    1.0000    0.0000 O   0  5  0  0  0  0  0  0  0  0  0  0
   23.8254   15.6200    0.0000 O   0  5  0  0  0  0  0  0  0  0  0  0
   22.0933    1.0000    0.0000 O   0  0  0  0  0  0  0  0  0  0  0  0
   22.0933   15.6200    0.0000 O   0  0  0  0  0  0  0  0  0  0  0  0
   29.4362   14.6200    0.0000 O   0  0  0  0  0  0  0  0  0  0  0  0
   26.3623   14.6200    0.0000 O   0  0  0  0  0  0  0  0  0  0  0  0
   19.6598   29.2400    0.0000 O   0  0  0  0  0  0  0  0  0  0  0  0
    0.5369   15.8700    0.0000 O   0  0  0  0  0  0  0  0  0  0  0  0
    0.5369   13.3700    0.0000 O   0  0  0  0  0  0  0  0  0  0  0  0
   21.2273    4.5000    0.0000 N   0  0  0  0  0  0  0  0  0  0  0  0
   21.2273   19.1200    0.0000 N   0  0  0  0  0  0  0  0  0  0  0  0
    6.5380   20.4900    0.0000 N   0  0  0  0  0  0  0  0  0  0  0  0
    6.5380   11.3331    0.0000 N   0  0  0  0  0  0  0  0  0  0  0  0
   12.5431   21.0778    0.0000 N   0  5  0  0  0  0  0  0  0  0  0  0
   12.5431   11.9208    0.0000 N   0  5  0  0  0  0  0  0  0  0  0  0
   10.9251   21.0778    0.0000 N   0  0  0  0  0  0  0  0  0  0  0  0
   10.9251   11.9208    0.0000 N   0  0  0  0  0  0  0  0  0  0  0  0
   12.2341   22.0288    0.0000 N   0  0  0  0  0  0  0  0  0  0  0  0
   12.2341   12.8719    0.0000 N   0  0  0  0  0  0  0  0  0  0  0  0
   11.2341   22.0288    0.0000 N   0  0  0  0  0  0  0  0  0  0  0  0
   11.2341   12.8719    0.0000 N   0  0  0  0  0  0  0  0  0  0  0  0
   21.2273    5.5000    0.0000 C   0  0  1  0  0  0  0  0  0  0  0  0
   21.2273   20.1200    0.0000 C   0  0  1  0  0  0  0  0  0  0  0  0
   20.3613    6.0000    0.0000 C   0  0  0  0  0  0  0  0  0  0  0  0
   20.3613   20.6200    0.0000 C   0  0  0  0  0  0  0  0  0  0  0  0
   19.4952    5.5000    0.0000 C   0  0  1  0  0  0  0  0  0  0  0  0
   19.4952   20.1200    0.0000 C   0  0  1  0  0  0  0  0  0  0  0  0
   22.0933    6.0000    0.0000 C   0  0  0  0  0  0  0  0  0  0  0  0
   22.0933   20.6200    0.0000 C   0  0  0  0  0  0  0  0  0  0  0  0
    5.6720   20.9900    0.0000 C   0  0  1  0  0  0  0  0  0  0  0  0
    5.6720   11.8331    0.0000 C   0  0  1  0  0  0  0  0  0  0  0  0
    5.6720   21.9900    0.0000 C   0  0  0  0  0  0  0  0  0  0  0  0
    5.6720   12.8331    0.0000 C   0  0  0  0  0  0  0  0  0  0  0  0
   22.0933    7.0000    0.0000 C   0  0  0  0  0  0  0  0  0  0  0  0
   22.0933   21.6200    0.0000 C   0  0  0  0  0  0  0  0  0  0  0  0
   19.4952    4.5000    0.0000 C   0  0  0  0  0  0  0  0  0  0  0  0
   19.4952   19.1200    0.0000 C   0  0  0  0  0  0  0  0  0  0  0  0
    7.4040   20.9900    0.0000 C   0  0  0  0  0  0  0  0  0  0  0  0
    7.4040   11.8331    0.0000 C   0  0  0  0  0  0  0  0  0  0  0  0
   18.6292    6.0000    0.0000 C   0  0  0  0  0  0  0  0  0  0  0  0
   18.6292   20.6200    0.0000 C   0  0  0  0  0  0  0  0  0  0  0  0
    4.8059   22.4900    0.0000 C   0  0  0  0  0  0  0  0  0  0  0  0
    6.5380   22.4900    0.0000 C   0  0  0  0  0  0  0  0  0  0  0  0
    4.8059   13.3331    0.0000 C   0  0  0  0  0  0  0  0  0  0  0  0
    6.5380   13.3331    0.0000 C   0  0  0  0  0  0  0  0  0  0  0  0
    6.5380   19.4900    0.0000 C   0  0  0  0  0  0  0  0  0  0  0  0
    6.5380   10.3331    0.0000 C   0  0  0  0  0  0  0  0  0  0  0  0
   22.0933    4.0000    0.0000 C   0  0  0  0  0  0  0  0  0  0  0  0
   22.0933   18.6200    0.0000 C   0  0  0  0  0  0  0  0  0  0  0  0
    5.6720   18.9900    0.0000 C   0  0  0  0  0  0  0  0  0  0  0  0
    5.6720    9.8331    0.0000 C   0  0  0  0  0  0  0  0  0  0  0  0
   22.9593    7.5000    0.0000 C   0  0  0  0  0  0  0  0  0  0  0  0
   22.9593   22.1200    0.0000 C   0  0  0  0  0  0  0  0  0  0  0  0
   21.2273    7.5000    0.0000 C   0  0  0  0  0  0  0  0  0  0  0  0
   21.2273   22.1200    0.0000 C   0  0  0  0  0  0  0  0  0  0  0  0
    4.8059   20.4900    0.0000 C   0  0  0  0  0  0  0  0  0  0  0  0
    4.8059   11.3331    0.0000 C   0  0  0  0  0  0  0  0  0  0  0  0
    8.2700   20.4900    0.0000 C   0  0  0  0  0  0  0  0  0  0  0  0
    8.2700   11.3331    0.0000 C   0  0  0  0  0  0  0  0  0  0  0  0
    5.6720   17.9900    0.0000 C   0  0  0  0  0  0  0  0  0  0  0  0
    5.6720    8.8331    0.0000 C   0  0  0  0  0  0  0  0  0  0  0  0
   22.0933    3.0000    0.0000 C   0  0  0  0  0  0  0  0  0  0  0  0
   22.0933   17.6200    0.0000 C   0  0  0  0  0  0  0  0  0  0  0  0
   22.9593    8.5000    0.0000 C   0  0  0  0  0  0  0  0  0  0  0  0
   22.9593   23.1200    0.0000 C   0  0  0  0  0  0  0  0  0  0  0  0
   21.2273    8.5000    0.0000 C   0  0  0  0  0  0  0  0  0  0  0  0
   21.2273   23.1200    0.0000 C   0  0  0  0  0  0  0  0  0  0  0  0
   22.0933    9.0000    0.0000 C   0  0  0  0  0  0  0  0  0  0  0  0
   22.0933   23.6200    0.0000 C   0  0  0  0  0  0  0  0  0  0  0  0
    4.8059   17.4900    0.0000 C   0  0  0  0  0  0  0  0  0  0  0  0
    4.8059    8.3331    0.0000 C   0  0  0  0  0  0  0  0  0  0  0  0
    9.1360   20.9900    0.0000 C   0  0  0  0  0  0  0  0  0  0  0  0
    9.1360   11.8331    0.0000 C   0  0  0  0  0  0  0  0  0  0  0  0
    8.2700   19.4900    0.0000 C   0  0  0  0  0  0  0  0  0  0  0  0
    8.2700   10.3331    0.0000 C   0  0  0  0  0  0  0  0  0  0  0  0
   22.9593    2.5000    0.0000 C   0  0  0  0  0  0  0  0  0  0  0  0
   22.9593   17.1200    0.0000 C   0  0  0  0  0  0  0  0  0  0  0  0
   22.0933   10.0000    0.0000 C   0  0  0  0  0  0  0  0  0  0  0  0
   22.0933   24.6200    0.0000 C   0  0  0  0  0  0  0  0  0  0  0  0
   16.8972    6.0000    0.0000 C   0  0  0  0  0  0  0  0  0  0  0  0
   16.8972   20.6200    0.0000 C   0  0  0  0  0  0  0  0  0  0  0  0
   10.0021   19.4900    0.0000 C   0  0  0  0  0  0  0  0  0  0  0  0
   10.0021   10.3331    0.0000 C   0  0  0  0  0  0  0  0  0  0  0  0
   10.0021   20.4900    0.0000 C   0  0  0  0  0  0  0  0  0  0  0  0
   10.0021   11.3331    0.0000 C   0  0  0  0  0  0  0  0  0  0  0  0
    9.1360   18.9900    0.0000 C   0  0  0  0  0  0  0  0  0  0  0  0
    9.1360    9.8331    0.0000 C   0  0  0  0  0  0  0  0  0  0  0  0
    4.8059   16.4900    0.0000 C   0  0  0  0  0  0  0  0  0  0  0  0
    4.8059    7.3331    0.0000 C   0  0  0  0  0  0  0  0  0  0  0  0
   10.8681   18.9900    0.0000 C   0  0  0  0  0  0  0  0  0  0  0  0
   10.8681    9.8331    0.0000 C   0  0  0  0  0  0  0  0  0  0  0  0
   16.0311    5.5000    0.0000 C   0  0  0  0  0  0  0  0  0  0  0  0
   16.0311   20.1200    0.0000 C   0  0  0  0  0  0  0  0  0  0  0  0
   22.9593    1.5000    0.0000 C   0  0  0  0  0  0  0  0  0  0  0  0
   22.9593   16.1200    0.0000 C   0  0  0  0  0  0  0  0  0  0  0  0
   21.2273   10.5000    0.0000 C   0  0  0  0  0  0  0  0  0  0  0  0
   21.2273   25.1200    0.0000 C   0  0  0  0  0  0  0  0  0  0  0  0
   22.9593   10.5000    0.0000 C   0  0  0  0  0  0  0  0  0  0  0  0
   22.9593   25.1200    0.0000 C   0  0  0  0  0  0  0  0  0  0  0  0
   11.7341   19.4900    0.0000 C   0  0  0  0  0  0  0  0  0  0  0  0
   11.7341   10.3331    0.0000 C   0  0  0  0  0  0  0  0  0  0  0  0
   10.8681   17.9900    0.0000 C   0  0  0  0  0  0  0  0  0  0  0  0
   10.8681    8.8331    0.0000 C   0  0  0  0  0  0  0  0  0  0  0  0
   21.2273   11.5000    0.0000 C   0  0  0  0  0  0  0  0  0  0  0  0
   21.2273   26.1200    0.0000 C   0  0  0  0  0  0  0  0  0  0  0  0
   22.9593   11.5000    0.0000 C   0  0  0  0  0  0  0  0  0  0  0  0
   22.9593   26.1200    0.0000 C   0  0  0  0  0  0  0  0  0  0  0  0
   22.0933   12.0000    0.0000 C   0  0  0  0  0  0  0  0  0  0  0  0
   22.0933   26.6200    0.0000 C   0  0  0  0  0  0  0  0  0  0  0  0
   12.6002   18.9900    0.0000 C   0  0  0  0  0  0  0  0  0  0  0  0
   12.6002    9.8331    0.0000 C   0  0  0  0  0  0  0  0  0  0  0  0
   11.7341   17.4900    0.0000 C   0  0  0  0  0  0  0  0  0  0  0  0
   11.7341    8.3331    0.0000 C   0  0  0  0  0  0  0  0  0  0  0  0
   11.7341   20.4900    0.0000 C   0  0  0  0  0  0  0  0  0  0  0  0
   11.7341   11.3331    0.0000 C   0  0  0  0  0  0  0  0  0  0  0  0
   12.6002   17.9900    0.0000 C   0  0  0  0  0  0  0  0  0  0  0  0
   12.6002    8.8331    0.0000 C   0  0  0  0  0  0  0  0  0  0  0  0
   21.7642    5.1900    0.0000 H   0  0  0  0  0  0  0  0  0  0  0  0
   20.6903   19.8100    0.0000 H   0  0  0  0  0  0  0  0  0  0  0  0
   20.7598    6.4750    0.0000 H   0  0  0  0  0  0  0  0  0  0  0  0
   19.9627    6.4750    0.0000 H   0  0  0  0  0  0  0  0  0  0  0  0
   20.7598   21.0949    0.0000 H   0  0  0  0  0  0  0  0  0  0  0  0
   19.9627   21.0949    0.0000 H   0  0  0  0  0  0  0  0  0  0  0  0
   18.9583    5.1900    0.0000 H   0  0  0  0  0  0  0  0  0  0  0  0
   18.9583   19.8100    0.0000 H   0  0  0  0  0  0  0  0  0  0  0  0
   22.3054    5.4174    0.0000 H   0  0  0  0  0  0  0  0  0  0  0  0
   22.7039    6.1077    0.0000 H   0  0  0  0  0  0  0  0  0  0  0  0
   22.3054   20.0374    0.0000 H   0  0  0  0  0  0  0  0  0  0  0  0
   22.7039   20.7277    0.0000 H   0  0  0  0  0  0  0  0  0  0  0  0
    5.6720   20.3700    0.0000 H   0  0  0  0  0  0  0  0  0  0  0  0
    5.6720   11.2131    0.0000 H   0  0  0  0  0  0  0  0  0  0  0  0
    5.6720   22.6100    0.0000 H   0  0  0  0  0  0  0  0  0  0  0  0
    5.6720   13.4531    0.0000 H   0  0  0  0  0  0  0  0  0  0  0  0
   20.6904    4.1900    0.0000 H   0  0  0  0  0  0  0  0  0  0  0  0
   20.6904   18.8100    0.0000 H   0  0  0  0  0  0  0  0  0  0  0  0
   18.8752    4.5000    0.0000 H   0  0  0  0  0  0  0  0  0  0  0  0
   19.4952    3.8800    0.0000 H   0  0  0  0  0  0  0  0  0  0  0  0
   20.1152    4.5000    0.0000 H   0  0  0  0  0  0  0  0  0  0  0  0
   18.8752   19.1200    0.0000 H   0  0  0  0  0  0  0  0  0  0  0  0
   19.4952   18.5000    0.0000 H   0  0  0  0  0  0  0  0  0  0  0  0
   20.1152   19.1200    0.0000 H   0  0  0  0  0  0  0  0  0  0  0  0
    7.8025   21.4649    0.0000 H   0  0  0  0  0  0  0  0  0  0  0  0
    7.0055   21.4649    0.0000 H   0  0  0  0  0  0  0  0  0  0  0  0
    7.8025   12.3080    0.0000 H   0  0  0  0  0  0  0  0  0  0  0  0
    7.0055   12.3080    0.0000 H   0  0  0  0  0  0  0  0  0  0  0  0
    5.1159   23.0269    0.0000 H   0  0  0  0  0  0  0  0  0  0  0  0
    4.2690   22.8000    0.0000 H   0  0  0  0  0  0  0  0  0  0  0  0
    4.4959   21.9531    0.0000 H   0  0  0  0  0  0  0  0  0  0  0  0
    6.8480   21.9531    0.0000 H   0  0  0  0  0  0  0  0  0  0  0  0
    7.0749   22.8000    0.0000 H   0  0  0  0  0  0  0  0  0  0  0  0
    6.2280   23.0269    0.0000 H   0  0  0  0  0  0  0  0  0  0  0  0
    5.1159   13.8700    0.0000 H   0  0  0  0  0  0  0  0  0  0  0  0
    4.2690   13.6431    0.0000 H   0  0  0  0  0  0  0  0  0  0  0  0
    4.4959   12.7961    0.0000 H   0  0  0  0  0  0  0  0  0  0  0  0
    6.8480   12.7961    0.0000 H   0  0  0  0  0  0  0  0  0  0  0  0
    7.0749   13.6431    0.0000 H   0  0  0  0  0  0  0  0  0  0  0  0
    6.2280   13.8700    0.0000 H   0  0  0  0  0  0  0  0  0  0  0  0
    5.4599   19.5726    0.0000 H   0  0  0  0  0  0  0  0  0  0  0  0
    5.0614   18.8823    0.0000 H   0  0  0  0  0  0  0  0  0  0  0  0
    5.4599   10.4157    0.0000 H   0  0  0  0  0  0  0  0  0  0  0  0
    5.0614    9.7254    0.0000 H   0  0  0  0  0  0  0  0  0  0  0  0
   23.4963    7.1900    0.0000 H   0  0  0  0  0  0  0  0  0  0  0  0
   23.4963   21.8100    0.0000 H   0  0  0  0  0  0  0  0  0  0  0  0
   20.6904    7.1900    0.0000 H   0  0  0  0  0  0  0  0  0  0  0  0
   20.6904   21.8100    0.0000 H   0  0  0  0  0  0  0  0  0  0  0  0
    5.8840   17.4074    0.0000 H   0  0  0  0  0  0  0  0  0  0  0  0
    6.2825   18.0977    0.0000 H   0  0  0  0  0  0  0  0  0  0  0  0
    5.8840    8.2504    0.0000 H   0  0  0  0  0  0  0  0  0  0  0  0
    6.2825    8.9407    0.0000 H   0  0  0  0  0  0  0  0  0  0  0  0
   21.4827    3.1077    0.0000 H   0  0  0  0  0  0  0  0  0  0  0  0
   21.8813    2.4174    0.0000 H   0  0  0  0  0  0  0  0  0  0  0  0
   21.4827   17.7277    0.0000 H   0  0  0  0  0  0  0  0  0  0  0  0
   21.8813   17.0374    0.0000 H   0  0  0  0  0  0  0  0  0  0  0  0
   23.4963    8.8100    0.0000 H   0  0  0  0  0  0  0  0  0  0  0  0
   23.4963   23.4300    0.0000 H   0  0  0  0  0  0  0  0  0  0  0  0
   20.6904    8.8100    0.0000 H   0  0  0  0  0  0  0  0  0  0  0  0
   20.6904   23.4300    0.0000 H   0  0  0  0  0  0  0  0  0  0  0  0
    4.5939   18.0726    0.0000 H   0  0  0  0  0  0  0  0  0  0  0  0
    4.1953   17.3823    0.0000 H   0  0  0  0  0  0  0  0  0  0  0  0
    4.5939    8.9157    0.0000 H   0  0  0  0  0  0  0  0  0  0  0  0
    4.1953    8.2254    0.0000 H   0  0  0  0  0  0  0  0  0  0  0  0
    9.1360   21.6100    0.0000 H   0  0  0  0  0  0  0  0  0  0  0  0
    9.1360   12.4531    0.0000 H   0  0  0  0  0  0  0  0  0  0  0  0
    7.7331   19.1800    0.0000 H   0  0  0  0  0  0  0  0  0  0  0  0
    7.7331   10.0231    0.0000 H   0  0  0  0  0  0  0  0  0  0  0  0
   23.5699    2.3923    0.0000 H   0  0  0  0  0  0  0  0  0  0  0  0
   23.1714    3.0826    0.0000 H   0  0  0  0  0  0  0  0  0  0  0  0
   23.5699   17.0123    0.0000 H   0  0  0  0  0  0  0  0  0  0  0  0
   23.1714   17.7026    0.0000 H   0  0  0  0  0  0  0  0  0  0  0  0
   17.2957    6.4750    0.0000 H   0  0  0  0  0  0  0  0  0  0  0  0
   16.4986    6.4750    0.0000 H   0  0  0  0  0  0  0  0  0  0  0  0
   17.2957   21.0949    0.0000 H   0  0  0  0  0  0  0  0  0  0  0  0
   16.4986   21.0949    0.0000 H   0  0  0  0  0  0  0  0  0  0  0  0
   10.5390   20.8000    0.0000 H   0  0  0  0  0  0  0  0  0  0  0  0
   10.5390   11.6431    0.0000 H   0  0  0  0  0  0  0  0  0  0  0  0
    9.1360   18.3700    0.0000 H   0  0  0  0  0  0  0  0  0  0  0  0
    9.1360    9.2131    0.0000 H   0  0  0  0  0  0  0  0  0  0  0  0
    4.1859   16.4900    0.0000 H   0  0  0  0  0  0  0  0  0  0  0  0
    4.8059   15.8700    0.0000 H   0  0  0  0  0  0  0  0  0  0  0  0
    5.4259   16.4900    0.0000 H   0  0  0  0  0  0  0  0  0  0  0  0
    4.1859    7.3331    0.0000 H   0  0  0  0  0  0  0  0  0  0  0  0
    4.8059    6.7131    0.0000 H   0  0  0  0  0  0  0  0  0  0  0  0
    5.4259    7.3331    0.0000 H   0  0  0  0  0  0  0  0  0  0  0  0
   15.7211    6.0369    0.0000 H   0  0  0  0  0  0  0  0  0  0  0  0
   15.4942    5.1900    0.0000 H   0  0  0  0  0  0  0  0  0  0  0  0
   16.3411    4.9631    0.0000 H   0  0  0  0  0  0  0  0  0  0  0  0
   15.7211   20.6569    0.0000 H   0  0  0  0  0  0  0  0  0  0  0  0
   15.4942   19.8100    0.0000 H   0  0  0  0  0  0  0  0  0  0  0  0
   16.3411   19.5831    0.0000 H   0  0  0  0  0  0  0  0  0  0  0  0
   20.6904   10.1900    0.0000 H   0  0  0  0  0  0  0  0  0  0  0  0
   20.6904   24.8100    0.0000 H   0  0  0  0  0  0  0  0  0  0  0  0
   23.4963   10.1900    0.0000 H   0  0  0  0  0  0  0  0  0  0  0  0
   23.4963   24.8100    0.0000 H   0  0  0  0  0  0  0  0  0  0  0  0
   10.3312   17.6800    0.0000 H   0  0  0  0  0  0  0  0  0  0  0  0
   10.3312    8.5231    0.0000 H   0  0  0  0  0  0  0  0  0  0  0  0
   20.6904   11.8100    0.0000 H   0  0  0  0  0  0  0  0  0  0  0  0
   20.6904   26.4300    0.0000 H   0  0  0  0  0  0  0  0  0  0  0  0
   23.4963   11.8100    0.0000 H   0  0  0  0  0  0  0  0  0  0  0  0
   23.4963   26.4300    0.0000 H   0  0  0  0  0  0  0  0  0  0  0  0
   22.0933   12.6200    0.0000 H   0  0  0  0  0  0  0  0  0  0  0  0
   22.0933   27.2400    0.0000 H   0  0  0  0  0  0  0  0  0  0  0  0
   13.1371   19.3000    0.0000 H   0  0  0  0  0  0  0  0  0  0  0  0
   13.1371   10.1431    0.0000 H   0  0  0  0  0  0  0  0  0  0  0  0
   11.7341   16.8700    0.0000 H   0  0  0  0  0  0  0  0  0  0  0  0
   11.7341    7.7131    0.0000 H   0  0  0  0  0  0  0  0  0  0  0  0
   13.1371   17.6800    0.0000 H   0  0  0  0  0  0  0  0  0  0  0  0
   13.1371    8.5231    0.0000 H   0  0  0  0  0  0  0  0  0  0  0  0
   29.9731   14.9300    0.0000 H   0  0  0  0  0  0  0  0  0  0  0  0
   28.8992   14.9300    0.0000 H   0  0  0  0  0  0  0  0  0  0  0  0
   26.8992   14.9300    0.0000 H   0  0  0  0  0  0  0  0  0  0  0  0
   25.8254   14.9300    0.0000 H   0  0  0  0  0  0  0  0  0  0  0  0
   20.1967   29.5500    0.0000 H   0  0  0  0  0  0  0  0  0  0  0  0
   19.1228   29.5500    0.0000 H   0  0  0  0  0  0  0  0  0  0  0  0
    1.0739   16.1800    0.0000 H   0  0  0  0  0  0  0  0  0  0  0  0
    0.0000   16.1800    0.0000 H   0  0  0  0  0  0  0  0  0  0  0  0
    1.0739   13.6800    0.0000 H   0  0  0  0  0  0  0  0  0  0  0  0
    0.0000   13.6800    0.0000 H   0  0  0  0  0  0  0  0  0  0  0  0
  7 58  1  0  0  0  0
  7 98  1  0  0  0  0
  8 59  1  0  0  0  0
  8 99  1  0  0  0  0
  9 58  2  0  0  0  0
 10 59  2  0  0  0  0
 11 64  2  0  0  0  0
 12 65  2  0  0  0  0
 13 66  2  0  0  0  0
 14 67  2  0  0  0  0
 15 74  1  0  0  0  0
 16 75  1  0  0  0  0
 17 74  2  0  0  0  0
 18 75  2  0  0  0  0
 19112  1  0  0  0  0
 20113  1  0  0  0  0
 21112  2  0  0  0  0
 22113  2  0  0  0  0
 23246  1  0  0  0  0
 23247  1  0  0  0  0
 24248  1  0  0  0  0
 24249  1  0  0  0  0
 25250  1  0  0  0  0
 25251  1  0  0  0  0
 26252  1  0  0  0  0
 26253  1  0  0  0  0
 27254  1  0  0  0  0
 27255  1  0  0  0  0
 40 28  1  1  0  0  0
 28 66  1  0  0  0  0
 28152  1  0  0  0  0
 41 29  1  1  0  0  0
 29 67  1  0  0  0  0
 29153  1  0  0  0  0
 48 30  1  6  0  0  0
 30 56  1  0  0  0  0
 30 64  1  0  0  0  0
 49 31  1  6  0  0  0
 31 57  1  0  0  0  0
 31 65  1  0  0  0  0
 32 36  1  0  0  0  0
 32132  1  0  0  0  0
 33 37  1  0  0  0  0
 33133  1  0  0  0  0
 34 38  1  0  0  0  0
 34132  2  0  0  0  0
 35 39  1  0  0  0  0
 35133  2  0  0  0  0
 36 38  2  0  0  0  0
 37 39  2  0  0  0  0
 40 42  1  0  0  0  0
 40 46  1  0  0  0  0
 40136  1  0  0  0  0
 41 43  1  0  0  0  0
 41 47  1  0  0  0  0
 41137  1  0  0  0  0
 42 44  1  0  0  0  0
 42138  1  0  0  0  0
 42139  1  0  0  0  0
 43 45  1  0  0  0  0
 43140  1  0  0  0  0
 43141  1  0  0  0  0
 44 54  1  1  0  0  0
 44 58  1  0  0  0  0
 44142  1  0  0  0  0
 45 55  1  1  0  0  0
 45 59  1  0  0  0  0
 45143  1  0  0  0  0
 46 52  1  0  0  0  0
 46144  1  0  0  0  0
 46145  1  0  0  0  0
 47 53  1  0  0  0  0
 47146  1  0  0  0  0
 47147  1  0  0  0  0
 48 50  1  0  0  0  0
 48 74  1  0  0  0  0
 48148  1  0  0  0  0
 49 51  1  0  0  0  0
 49 75  1  0  0  0  0
 49149  1  0  0  0  0
 50 60  1  0  0  0  0
 50 61  1  0  0  0  0
 50150  1  0  0  0  0
 51 62  1  0  0  0  0
 51 63  1  0  0  0  0
 51151  1  0  0  0  0
 52 70  2  0  0  0  0
 52 72  1  0  0  0  0
 53 71  2  0  0  0  0
 53 73  1  0  0  0  0
 54154  1  0  0  0  0
 54155  1  0  0  0  0
 54156  1  0  0  0  0
 55157  1  0  0  0  0
 55158  1  0  0  0  0
 55159  1  0  0  0  0
 56 76  1  0  0  0  0
 56160  1  0  0  0  0
 56161  1  0  0  0  0
 57 77  1  0  0  0  0
 57162  1  0  0  0  0
 57163  1  0  0  0  0
 60164  1  0  0  0  0
 60165  1  0  0  0  0
 60166  1  0  0  0  0
 61167  1  0  0  0  0
 61168  1  0  0  0  0
 61169  1  0  0  0  0
 62170  1  0  0  0  0
 62171  1  0  0  0  0
 62172  1  0  0  0  0
 63173  1  0  0  0  0
 63174  1  0  0  0  0
 63175  1  0  0  0  0
 64 68  1  0  0  0  0
 65 69  1  0  0  0  0
 66 80  1  0  0  0  0
 67 81  1  0  0  0  0
 68 78  1  0  0  0  0
 68176  1  0  0  0  0
 68177  1  0  0  0  0
 69 79  1  0  0  0  0
 69178  1  0  0  0  0
 69179  1  0  0  0  0
 70 82  1  0  0  0  0
 70180  1  0  0  0  0
 71 83  1  0  0  0  0
 71181  1  0  0  0  0
 72 84  2  0  0  0  0
 72182  1  0  0  0  0
 73 85  2  0  0  0  0
 73183  1  0  0  0  0
 76 90  2  0  0  0  0
 76 92  1  0  0  0  0
 77 91  2  0  0  0  0
 77 93  1  0  0  0  0
 78 88  1  0  0  0  0
 78184  1  0  0  0  0
 78185  1  0  0  0  0
 79 89  1  0  0  0  0
 79186  1  0  0  0  0
 79187  1  0  0  0  0
 80 94  1  0  0  0  0
 80188  1  0  0  0  0
 80189  1  0  0  0  0
 81 95  1  0  0  0  0
 81190  1  0  0  0  0
 81191  1  0  0  0  0
 82 86  2  0  0  0  0
 82192  1  0  0  0  0
 83 87  2  0  0  0  0
 83193  1  0  0  0  0
 84 86  1  0  0  0  0
 84194  1  0  0  0  0
 85 87  1  0  0  0  0
 85195  1  0  0  0  0
 86 96  1  0  0  0  0
 87 97  1  0  0  0  0
 88106  1  0  0  0  0
 88196  1  0  0  0  0
 88197  1  0  0  0  0
 89107  1  0  0  0  0
 89198  1  0  0  0  0
 89199  1  0  0  0  0
 90102  1  0  0  0  0
 90200  1  0  0  0  0
 91103  1  0  0  0  0
 91201  1  0  0  0  0
 92104  2  0  0  0  0
 92202  1  0  0  0  0
 93105  2  0  0  0  0
 93203  1  0  0  0  0
 94112  1  0  0  0  0
 94204  1  0  0  0  0
 94205  1  0  0  0  0
 95113  1  0  0  0  0
 95206  1  0  0  0  0
 95207  1  0  0  0  0
 96114  2  0  0  0  0
 96116  1  0  0  0  0
 97115  2  0  0  0  0
 97117  1  0  0  0  0
 98110  1  0  0  0  0
 98208  1  0  0  0  0
 98209  1  0  0  0  0
 99111  1  0  0  0  0
 99210  1  0  0  0  0
 99211  1  0  0  0  0
100102  2  0  0  0  0
100104  1  0  0  0  0
100108  1  0  0  0  0
101103  2  0  0  0  0
101105  1  0  0  0  0
101109  1  0  0  0  0
102212  1  0  0  0  0
103213  1  0  0  0  0
104214  1  0  0  0  0
105215  1  0  0  0  0
106216  1  0  0  0  0
106217  1  0  0  0  0
106218  1  0  0  0  0
107219  1  0  0  0  0
107220  1  0  0  0  0
107221  1  0  0  0  0
108118  1  0  0  0  0
108120  2  0  0  0  0
109119  1  0  0  0  0
109121  2  0  0  0  0
110222  1  0  0  0  0
110223  1  0  0  0  0
110224  1  0  0  0  0
111225  1  0  0  0  0
111226  1  0  0  0  0
111227  1  0  0  0  0
114122  1  0  0  0  0
114228  1  0  0  0  0
115123  1  0  0  0  0
115229  1  0  0  0  0
116124  2  0  0  0  0
116230  1  0  0  0  0
117125  2  0  0  0  0
117231  1  0  0  0  0
118128  2  0  0  0  0
118132  1  0  0  0  0
119129  2  0  0  0  0
119133  1  0  0  0  0
120130  1  0  0  0  0
120232  1  0  0  0  0
121131  1  0  0  0  0
121233  1  0  0  0  0
122126  2  0  0  0  0
122234  1  0  0  0  0
123127  2  0  0  0  0
123235  1  0  0  0  0
124126  1  0  0  0  0
124236  1  0  0  0  0
125127  1  0  0  0  0
125237  1  0  0  0  0
126238  1  0  0  0  0
127239  1  0  0  0  0
128134  1  0  0  0  0
128240  1  0  0  0  0
129135  1  0  0  0  0
129241  1  0  0  0  0
130134  2  0  0  0  0
130242  1  0  0  0  0
131135  2  0  0  0  0
131243  1  0  0  0  0
134244  1  0  0  0  0
135245  1  0  0  0  0
M  CHG  8   1   1   2   1   3   1   4   1   5   1   6   1  15  -1  16  -1
M  CHG  4  19  -1  20  -1  32  -1  33  -1
M  END
> <PUBCHEM_COMPOUND_CID>
71449007

> <PUBCHEM_COMPOUND_CANONICALIZED>
1

> <PUBCHEM_CACTVS_COMPLEXITY>
1140

> <PUBCHEM_CACTVS_HBOND_ACCEPTOR>
29

> <PUBCHEM_CACTVS_HBOND_DONOR>
7

> <PUBCHEM_CACTVS_ROTATABLE_BOND>
40

> <PUBCHEM_CACTVS_SUBSKEYS>
AAADcfB//jAAAAAAAAAAAAAAAAAAAWLAAAAwYMGDAAAAAAAB9AAAHgAYCAAADSjhmwYzGIfABACqAiPyOACCAAIgAAAciKGoBJgKILKAkTGGIAhklgCYiAe/yOCOwAAAAAAQAACAAAAAACAAAAAAAAAAAA==

> <PUBCHEM_IUPAC_OPENEYE_NAME>
hexasodium;4-[[(1S,3R)-4-ethoxy-3-methyl-4-oxo-1-[(4-phenylphenyl)methyl]butyl]amino]-4-oxo-butanoate;(2S)-3-methyl-2-[pentanoyl-[[4-[2-(1,2,3-triaza-4-azanidacyclopenta-2,5-dien-5-yl)phenyl]phenyl]methyl]amino]butanoate;pentahydrate

> <PUBCHEM_IUPAC_CAS_NAME>
hexasodium;4-[[(2S,4R)-5-ethoxy-4-methyl-5-oxo-1-(4-phenylphenyl)pentan-2-yl]amino]-4-oxobutanoate;(2S)-3-methyl-2-[1-oxopentyl-[[4-[2-(1,2,3-triaza-4-azanidacyclopenta-2,5-dien-5-yl)phenyl]phenyl]methyl]amino]butanoate;pentahydrate

> <PUBCHEM_IUPAC_NAME_MARKUP>
hexasodium;4-[[(2<I>S</I>,4<I>R</I>)-5-ethoxy-4-methyl-5-oxo-1-(4-phenylphenyl)pentan-2-yl]amino]-4-oxobutanoate;(2<I>S</I>)-3-methyl-2-[pentanoyl-[[4-[2-(1,2,3-triaza-4-azanidacyclopenta-2,5-dien-5-yl)phenyl]phenyl]methyl]amino]butanoate;pentahydrate

> <PUBCHEM_IUPAC_NAME>
hexasodium;4-[[(2S,4R)-5-ethoxy-4-methyl-5-oxo-1-(4-phenylphenyl)pentan-2-yl]amino]-4-oxobutanoate;(2S)-3-methyl-2-[pentanoyl-[[4-[2-(1,2,3-triaza-4-azanidacyclopenta-2,5-dien-5-yl)phenyl]phenyl]methyl]amino]butanoate;pentahydrate

> <PUBCHEM_IUPAC_SYSTEMATIC_NAME>
hexasodium;4-[[(2S,4R)-5-ethoxy-4-methyl-5-oxidanylidene-1-(4-phenylphenyl)pentan-2-yl]amino]-4-oxidanylidene-butanoate;(2S)-3-methyl-2-[pentanoyl-[[4-[2-(1,2,3-triaza-4-azanidacyclopenta-2,5-dien-5-yl)phenyl]phenyl]methyl]amino]butanoate;pentahydrate

> <PUBCHEM_IUPAC_TRADITIONAL_NAME>
hexasodium;4-[[(1S,3R)-4-ethoxy-4-keto-3-methyl-1-(4-phenylbenzyl)butyl]amino]-4-keto-butyrate;(2S)-3-methyl-2-[[4-[2-(1,2,3-triaza-4-azanidacyclopenta-2,5-dien-5-yl)phenyl]benzyl]-valeryl-amino]butyrate;pentahydrate

> <PUBCHEM_IUPAC_INCHI>
InChI=1S/2C24H29N5O3.2C24H29NO5.6Na.5H2O/c2*1-4-5-10-21(30)29(22(16(2)3)24(31)32)15-17-11-13-18(14-12-17)19-8-6-7-9-20(19)23-25-27-28-26-23;2*1-3-30-24(29)17(2)15-21(25-22(26)13-14-23(27)28)16-18-9-11-20(12-10-18)19-7-5-4-6-8-19;;;;;;;;;;;/h2*6-9,11-14,16,22H,4-5,10,15H2,1-3H3,(H2,25,26,27,28,31,32);2*4-12,17,21H,3,13-16H2,1-2H3,(H,25,26)(H,27,28);;;;;;;5*1H2/q;;;;6*+1;;;;;/p-6/t2*22-;2*17-,21+;;;;;;;;;;;/m0011.........../s1

> <PUBCHEM_IUPAC_INCHIKEY>
ZASXKEGREHRXDL-CAWNUZPDSA-H

> <PUBCHEM_EXACT_MASS>
1915.81107

> <PUBCHEM_MOLECULAR_FORMULA>
C96H120N12Na6O21

> <PUBCHEM_MOLECULAR_WEIGHT>
1916

> <PUBCHEM_OPENEYE_CAN_SMILES>
CCCCC(=O)N(CC1=CC=C(C=C1)C2=CC=CC=C2C3=NN=N[N-]3)C(C(C)C)C(=O)[O-].CCCCC(=O)N(CC1=CC=C(C=C1)C2=CC=CC=C2C3=NN=N[N-]3)C(C(C)C)C(=O)[O-].CCOC(=O)C(C)CC(CC1=CC=C(C=C1)C2=CC=CC=C2)NC(=O)CCC(=O)[O-].CCOC(=O)C(C)CC(CC1=CC=C(C=C1)C2=CC=CC=C2)NC(=O)CCC(=O)[O-].O.O.O.O.O.[Na+].[Na+].[Na+].[Na+].[Na+].[Na+]

> <PUBCHEM_OPENEYE_ISO_SMILES>
CCCCC(=O)N(CC1=CC=C(C=C1)C2=CC=CC=C2C3=NN=N[N-]3)[C@@H](C(C)C)C(=O)[O-].CCCCC(=O)N(CC1=CC=C(C=C1)C2=CC=CC=C2C3=NN=N[N-]3)[C@@H](C(C)C)C(=O)[O-].CCOC(=O)[C@H](C)C[C@@H](CC1=CC=C(C=C1)C2=CC=CC=C2)NC(=O)CCC(=O)[O-].CCOC(=O)[C@H](C)C[C@@H](CC1=CC=C(C=C1)C2=CC=CC=C2)NC(=O)CCC(=O)[O-].O.O.O.O.O.[Na+].[Na+].[Na+].[Na+].[Na+].[Na+]

> <PUBCHEM_CACTVS_TPSA>
396

> <PUBCHEM_MONOISOTOPIC_WEIGHT>
1914.807715

> <PUBCHEM_TOTAL_CHARGE>
0

> <PUBCHEM_HEAVY_ATOM_COUNT>
135

> <PUBCHEM_ATOM_DEF_STEREO_COUNT>
6

> <PUBCHEM_ATOM_UDEF_STEREO_COUNT>
0

> <PUBCHEM_BOND_DEF_STEREO_COUNT>
0

> <PUBCHEM_BOND_UDEF_STEREO_COUNT>
0

> <PUBCHEM_ISOTOPIC_ATOM_COUNT>
0

> <PUBCHEM_COMPONENT_COUNT>
15

> <PUBCHEM_CACTVS_TAUTO_COUNT>
-1

> <PUBCHEM_COORDINATE_TYPE>
1
5
255

> <PUBCHEM_BONDANNOTATIONS>
100  102  8
100  104  8
101  103  8
101  105  8
108  118  8
108  120  8
109  119  8
109  121  8
114  122  8
115  123  8
116  124  8
117  125  8
118  128  8
119  129  8
120  130  8
121  131  8
122  126  8
123  127  8
124  126  8
125  127  8
128  134  8
129  135  8
130  134  8
131  135  8
40  28  5
41  29  5
48  30  6
49  31  6
32  132  8
32  36  8
33  133  8
33  37  8
34  132  8
34  38  8
35  133  8
35  39  8
36  38  8
37  39  8
44  54  5
45  55  5
52  70  8
52  72  8
53  71  8
53  73  8
70  82  8
71  83  8
72  84  8
73  85  8
76  90  8
76  92  8
77  91  8
77  93  8
82  86  8
83  87  8
84  86  8
85  87  8
90  102  8
91  103  8
92  104  8
93  105  8
96  114  8
96  116  8
97  115  8
97  117  8

$$$$
