73115
  -OEChem-05242006112D

 31 32  0     1  0  0  0  0  0999 V2000
    2.0000   -0.8216    0.0000 F   0  0  0  0  0  0  0  0  0  0  0  0
    4.5691   -1.1307    0.0000 O   0  0  0  0  0  0  0  0  0  0  0  0
    2.6723   -2.8907    0.0000 O   0  0  0  0  0  0  0  0  0  0  0  0
    5.8424   -2.7862    0.0000 O   0  0  0  0  0  0  0  0  0  0  0  0
    5.4921    0.4571    0.0000 O   0  0  0  0  0  0  0  0  0  0  0  0
    3.7601    3.4571    0.0000 O   0  0  0  0  0  0  0  0  0  0  0  0
    3.7601    0.4571    0.0000 N   0  0  0  0  0  0  0  0  0  0  0  0
    4.6261    1.9571    0.0000 N   0  0  0  0  0  0  0  0  0  0  0  0
    3.2601   -2.0817    0.0000 C   0  0  2  0  0  0  0  0  0  0  0  0
    3.7601   -0.5429    0.0000 C   0  0  2  0  0  0  0  0  0  0  0  0
    2.9511   -1.1307    0.0000 C   0  0  2  0  0  0  0  0  0  0  0  0
    4.2601   -2.0817    0.0000 C   0  0  2  0  0  0  0  0  0  0  0  0
    4.8479   -2.8907    0.0000 C   0  0  0  0  0  0  0  0  0  0  0  0
    2.8940    0.9571    0.0000 C   0  0  0  0  0  0  0  0  0  0  0  0
    4.6261    0.9571    0.0000 C   0  0  0  0  0  0  0  0  0  0  0  0
    2.8940    1.9571    0.0000 C   0  0  0  0  0  0  0  0  0  0  0  0
    3.7601    2.4571    0.0000 C   0  0  0  0  0  0  0  0  0  0  0  0
    2.0280    2.4571    0.0000 C   0  0  0  0  0  0  0  0  0  0  0  0
    2.6477   -1.9847    0.0000 H   0  0  0  0  0  0  0  0  0  0  0  0
    4.3125   -0.2614    0.0000 H   0  0  0  0  0  0  0  0  0  0  0  0
    2.5126   -1.5691    0.0000 H   0  0  0  0  0  0  0  0  0  0  0  0
    4.8724   -1.9847    0.0000 H   0  0  0  0  0  0  0  0  0  0  0  0
    4.2906   -3.1625    0.0000 H   0  0  0  0  0  0  0  0  0  0  0  0
    5.0188   -3.4867    0.0000 H   0  0  0  0  0  0  0  0  0  0  0  0
    2.9245   -3.4571    0.0000 H   0  0  0  0  0  0  0  0  0  0  0  0
    2.3571    0.6471    0.0000 H   0  0  0  0  0  0  0  0  0  0  0  0
    5.1630    2.2671    0.0000 H   0  0  0  0  0  0  0  0  0  0  0  0
    6.2068   -3.2878    0.0000 H   0  0  0  0  0  0  0  0  0  0  0  0
    2.3380    2.9941    0.0000 H   0  0  0  0  0  0  0  0  0  0  0  0
    1.4911    2.7671    0.0000 H   0  0  0  0  0  0  0  0  0  0  0  0
    1.7180    1.9202    0.0000 H   0  0  0  0  0  0  0  0  0  0  0  0
 11  1  1  1  0  0  0
  2 10  1  0  0  0  0
  2 12  1  0  0  0  0
  9  3  1  6  0  0  0
  3 25  1  0  0  0  0
  4 13  1  0  0  0  0
  4 28  1  0  0  0  0
  5 15  2  0  0  0  0
  6 17  2  0  0  0  0
 10  7  1  1  0  0  0
  7 14  1  0  0  0  0
  7 15  1  0  0  0  0
  8 15  1  0  0  0  0
  8 17  1  0  0  0  0
  8 27  1  0  0  0  0
  9 11  1  0  0  0  0
  9 12  1  0  0  0  0
  9 19  1  0  0  0  0
 10 11  1  0  0  0  0
 10 20  1  0  0  0  0
 11 21  1  0  0  0  0
 12 13  1  1  0  0  0
 12 22  1  0  0  0  0
 13 23  1  0  0  0  0
 13 24  1  0  0  0  0
 14 16  2  0  0  0  0
 14 26  1  0  0  0  0
 16 17  1  0  0  0  0
 16 18  1  0  0  0  0
 18 29  1  0  0  0  0
 18 30  1  0  0  0  0
 18 31  1  0  0  0  0
M  END
> <PUBCHEM_COMPOUND_CID>
73115

> <PUBCHEM_COMPOUND_CANONICALIZED>
1

> <PUBCHEM_CACTVS_COMPLEXITY>
413

> <PUBCHEM_CACTVS_HBOND_ACCEPTOR>
6

> <PUBCHEM_CACTVS_HBOND_DONOR>
3

> <PUBCHEM_CACTVS_ROTATABLE_BOND>
2

> <PUBCHEM_CACTVS_SUBSKEYS>
AAADccBzOQAAAAAAAAAAAAAAAAAAASAAAAAgAAAAAAAAAAAAAAAAHwAQCAAADBThgAYDAAPABgCIAgFWUACAAAAAAAAAAAEIAECBEAIAgQAOQAAPByIDAMCwMAIAAAAAAAAAAAAAAAAAAAAAAAAAAAAAAA==

> <PUBCHEM_IUPAC_OPENEYE_NAME>
1-[(2S,3R,4S,5S)-3-fluoro-4-hydroxy-5-(hydroxymethyl)tetrahydrofuran-2-yl]-5-methyl-pyrimidine-2,4-dione

> <PUBCHEM_IUPAC_CAS_NAME>
1-[(2S,3R,4S,5S)-3-fluoro-4-hydroxy-5-(hydroxymethyl)-2-oxolanyl]-5-methylpyrimidine-2,4-dione

> <PUBCHEM_IUPAC_NAME_MARKUP>
1-[(2<I>S</I>,3<I>R</I>,4<I>S</I>,5<I>S</I>)-3-fluoro-4-hydroxy-5-(hydroxymethyl)oxolan-2-yl]-5-methylpyrimidine-2,4-dione

> <PUBCHEM_IUPAC_NAME>
1-[(2S,3R,4S,5S)-3-fluoro-4-hydroxy-5-(hydroxymethyl)oxolan-2-yl]-5-methylpyrimidine-2,4-dione

> <PUBCHEM_IUPAC_SYSTEMATIC_NAME>
1-[(2S,3R,4S,5S)-3-fluoranyl-5-(hydroxymethyl)-4-oxidanyl-oxolan-2-yl]-5-methyl-pyrimidine-2,4-dione

> <PUBCHEM_IUPAC_TRADITIONAL_NAME>
1-[(2S,3R,4S,5S)-3-fluoro-4-hydroxy-5-methylol-tetrahydrofuran-2-yl]-5-methyl-pyrimidine-2,4-quinone

> <PUBCHEM_IUPAC_INCHI>
InChI=1S/C10H13FN2O5/c1-4-2-13(10(17)12-8(4)16)9-6(11)7(15)5(3-14)18-9/h2,5-7,9,14-15H,3H2,1H3,(H,12,16,17)/t5-,6+,7-,9-/m0/s1

> <PUBCHEM_IUPAC_INCHIKEY>
GBBJCSTXCAQSSJ-XQXXSGGOSA-N

> <PUBCHEM_XLOGP3>
-0.9

> <PUBCHEM_EXACT_MASS>
260.08085

> <PUBCHEM_MOLECULAR_FORMULA>
C10H13FN2O5

> <PUBCHEM_MOLECULAR_WEIGHT>
260.22

> <PUBCHEM_OPENEYE_CAN_SMILES>
CC1=CN(C(=O)NC1=O)C2C(C(C(O2)CO)O)F

> <PUBCHEM_OPENEYE_ISO_SMILES>
CC1=CN(C(=O)NC1=O)[C@@H]2[C@@H]([C@H]([C@@H](O2)CO)O)F

> <PUBCHEM_CACTVS_TPSA>
99.1

> <PUBCHEM_MONOISOTOPIC_WEIGHT>
260.08085

> <PUBCHEM_TOTAL_CHARGE>
0

> <PUBCHEM_HEAVY_ATOM_COUNT>
18

> <PUBCHEM_ATOM_DEF_STEREO_COUNT>
4

> <PUBCHEM_ATOM_UDEF_STEREO_COUNT>
0

> <PUBCHEM_BOND_DEF_STEREO_COUNT>
0

> <PUBCHEM_BOND_UDEF_STEREO_COUNT>
0

> <PUBCHEM_ISOTOPIC_ATOM_COUNT>
0

> <PUBCHEM_COMPONENT_COUNT>
1

> <PUBCHEM_CACTVS_TAUTO_COUNT>
-1

> <PUBCHEM_COORDINATE_TYPE>
1
5
255

> <PUBCHEM_BONDANNOTATIONS>
11  1  5
12  13  5
14  16  8
16  17  8
9  3  6
10  7  5
7  14  8
7  15  8
8  15  8
8  17  8

$$$$
