736506
  -OEChem-05242006122D

 32 33  0     1  0  0  0  0  0999 V2000
    4.2690    1.8450    0.0000 O   0  0  0  0  0  0  0  0  0  0  0  0
    2.5369    2.8450    0.0000 O   0  0  0  0  0  0  0  0  0  0  0  0
    4.2690   -0.1550    0.0000 N   0  0  3  0  0  0  0  0  0  0  0  0
    3.4030    0.3450    0.0000 C   0  0  0  0  0  0  0  0  0  0  0  0
    3.4030    1.3450    0.0000 C   0  0  2  0  0  0  0  0  0  0  0  0
    5.1350    0.3450    0.0000 C   0  0  0  0  0  0  0  0  0  0  0  0
    5.1350    1.3450    0.0000 C   0  0  0  0  0  0  0  0  0  0  0  0
    4.2690   -1.1550    0.0000 C   0  0  0  0  0  0  0  0  0  0  0  0
    2.5369    1.8450    0.0000 C   0  0  0  0  0  0  0  0  0  0  0  0
    5.1350   -1.6550    0.0000 C   0  0  0  0  0  0  0  0  0  0  0  0
    5.1350   -2.6550    0.0000 C   0  0  0  0  0  0  0  0  0  0  0  0
    6.0010   -1.1550    0.0000 C   0  0  0  0  0  0  0  0  0  0  0  0
    6.0010   -3.1550    0.0000 C   0  0  0  0  0  0  0  0  0  0  0  0
    6.8671   -1.6550    0.0000 C   0  0  0  0  0  0  0  0  0  0  0  0
    6.8671   -2.6550    0.0000 C   0  0  0  0  0  0  0  0  0  0  0  0
    2.7924    0.4527    0.0000 H   0  0  0  0  0  0  0  0  0  0  0  0
    3.1909   -0.2376    0.0000 H   0  0  0  0  0  0  0  0  0  0  0  0
    3.4030    1.9650    0.0000 H   0  0  0  0  0  0  0  0  0  0  0  0
    5.3471   -0.2376    0.0000 H   0  0  0  0  0  0  0  0  0  0  0  0
    5.7456    0.4527    0.0000 H   0  0  0  0  0  0  0  0  0  0  0  0
    5.7456    1.2373    0.0000 H   0  0  0  0  0  0  0  0  0  0  0  0
    5.3471    1.9276    0.0000 H   0  0  0  0  0  0  0  0  0  0  0  0
    3.6584   -1.0473    0.0000 H   0  0  0  0  0  0  0  0  0  0  0  0
    4.0569   -1.7376    0.0000 H   0  0  0  0  0  0  0  0  0  0  0  0
    1.9264    1.9527    0.0000 H   0  0  0  0  0  0  0  0  0  0  0  0
    2.3249    1.2624    0.0000 H   0  0  0  0  0  0  0  0  0  0  0  0
    4.5981   -2.9650    0.0000 H   0  0  0  0  0  0  0  0  0  0  0  0
    6.0010   -0.5350    0.0000 H   0  0  0  0  0  0  0  0  0  0  0  0
    2.0000    3.1550    0.0000 H   0  0  0  0  0  0  0  0  0  0  0  0
    6.0010   -3.7750    0.0000 H   0  0  0  0  0  0  0  0  0  0  0  0
    7.4040   -1.3450    0.0000 H   0  0  0  0  0  0  0  0  0  0  0  0
    7.4040   -2.9650    0.0000 H   0  0  0  0  0  0  0  0  0  0  0  0
  1  5  1  0  0  0  0
  1  7  1  0  0  0  0
  2  9  1  0  0  0  0
  2 29  1  0  0  0  0
  3  4  1  0  0  0  0
  3  6  1  0  0  0  0
  3  8  1  0  0  0  0
  4  5  1  0  0  0  0
  4 16  1  0  0  0  0
  4 17  1  0  0  0  0
  5  9  1  6  0  0  0
  5 18  1  0  0  0  0
  6  7  1  0  0  0  0
  6 19  1  0  0  0  0
  6 20  1  0  0  0  0
  7 21  1  0  0  0  0
  7 22  1  0  0  0  0
  8 10  1  0  0  0  0
  8 23  1  0  0  0  0
  8 24  1  0  0  0  0
  9 25  1  0  0  0  0
  9 26  1  0  0  0  0
 10 11  2  0  0  0  0
 10 12  1  0  0  0  0
 11 13  1  0  0  0  0
 11 27  1  0  0  0  0
 12 14  2  0  0  0  0
 12 28  1  0  0  0  0
 13 15  2  0  0  0  0
 13 30  1  0  0  0  0
 14 15  1  0  0  0  0
 14 31  1  0  0  0  0
 15 32  1  0  0  0  0
M  END
> <PUBCHEM_COMPOUND_CID>
736506

> <PUBCHEM_COMPOUND_CANONICALIZED>
1

> <PUBCHEM_CACTVS_COMPLEXITY>
181

> <PUBCHEM_CACTVS_HBOND_ACCEPTOR>
3

> <PUBCHEM_CACTVS_HBOND_DONOR>
1

> <PUBCHEM_CACTVS_ROTATABLE_BOND>
3

> <PUBCHEM_CACTVS_SUBSKEYS>
AAADceByMAAAAAAAAAAAAAAAAAAAAAAAAAA8QAAAAAAAAAABAAAAHgAACAAADBThmAYwAIMABgCAAiBCAACCAAAgAAAIiAAIBIgLMCKAkRGHYAhigACbiAcQgAAOAAAAAAAAAAAAAAAAAAAAAAAAAAAAAA==

> <PUBCHEM_IUPAC_OPENEYE_NAME>
[(2R)-4-benzylmorpholin-2-yl]methanol

> <PUBCHEM_IUPAC_CAS_NAME>
[(2R)-4-(phenylmethyl)-2-morpholinyl]methanol

> <PUBCHEM_IUPAC_NAME_MARKUP>
[(2<I>R</I>)-4-benzylmorpholin-2-yl]methanol

> <PUBCHEM_IUPAC_NAME>
[(2R)-4-benzylmorpholin-2-yl]methanol

> <PUBCHEM_IUPAC_SYSTEMATIC_NAME>
[(2R)-4-(phenylmethyl)morpholin-2-yl]methanol

> <PUBCHEM_IUPAC_TRADITIONAL_NAME>
[(2R)-4-benzylmorpholin-2-yl]methanol

> <PUBCHEM_IUPAC_INCHI>
InChI=1S/C12H17NO2/c14-10-12-9-13(6-7-15-12)8-11-4-2-1-3-5-11/h1-5,12,14H,6-10H2/t12-/m1/s1

> <PUBCHEM_IUPAC_INCHIKEY>
WQNIKIMRIXHNFF-GFCCVEGCSA-N

> <PUBCHEM_XLOGP3_AA>
0.8

> <PUBCHEM_EXACT_MASS>
207.125929

> <PUBCHEM_MOLECULAR_FORMULA>
C12H17NO2

> <PUBCHEM_MOLECULAR_WEIGHT>
207.27

> <PUBCHEM_OPENEYE_CAN_SMILES>
C1COC(CN1CC2=CC=CC=C2)CO

> <PUBCHEM_OPENEYE_ISO_SMILES>
C1CO[C@H](CN1CC2=CC=CC=C2)CO

> <PUBCHEM_CACTVS_TPSA>
32.7

> <PUBCHEM_MONOISOTOPIC_WEIGHT>
207.125929

> <PUBCHEM_TOTAL_CHARGE>
0

> <PUBCHEM_HEAVY_ATOM_COUNT>
15

> <PUBCHEM_ATOM_DEF_STEREO_COUNT>
1

> <PUBCHEM_ATOM_UDEF_STEREO_COUNT>
0

> <PUBCHEM_BOND_DEF_STEREO_COUNT>
0

> <PUBCHEM_BOND_UDEF_STEREO_COUNT>
0

> <PUBCHEM_ISOTOPIC_ATOM_COUNT>
0

> <PUBCHEM_COMPONENT_COUNT>
1

> <PUBCHEM_CACTVS_TAUTO_COUNT>
-1

> <PUBCHEM_COORDINATE_TYPE>
1
5
255

> <PUBCHEM_BONDANNOTATIONS>
10  11  8
10  12  8
11  13  8
12  14  8
13  15  8
14  15  8
5  9  6

$$$$
