74833
  -OEChem-05242006112D

 27 27  0     0  0  0  0  0  0999 V2000
    3.7320    2.3450    0.0000 S   0  0  0  0  0  0  0  0  0  0  0  0
    4.7320    2.3450    0.0000 O   0  0  0  0  0  0  0  0  0  0  0  0
    2.7320    2.3450    0.0000 O   0  0  0  0  0  0  0  0  0  0  0  0
    3.7320   -3.6550    0.0000 O   0  0  0  0  0  0  0  0  0  0  0  0
    2.8660   -2.1550    0.0000 N   0  0  0  0  0  0  0  0  0  0  0  0
    3.7320    3.3450    0.0000 N   0  0  0  0  0  0  0  0  0  0  0  0
    3.7320   -0.6550    0.0000 C   0  0  0  0  0  0  0  0  0  0  0  0
    3.7320    1.3450    0.0000 C   0  0  0  0  0  0  0  0  0  0  0  0
    3.7320   -1.6550    0.0000 C   0  0  0  0  0  0  0  0  0  0  0  0
    2.8660   -0.1550    0.0000 C   0  0  0  0  0  0  0  0  0  0  0  0
    4.5981   -0.1550    0.0000 C   0  0  0  0  0  0  0  0  0  0  0  0
    2.8660    0.8450    0.0000 C   0  0  0  0  0  0  0  0  0  0  0  0
    4.5981    0.8450    0.0000 C   0  0  0  0  0  0  0  0  0  0  0  0
    2.8660   -3.1550    0.0000 C   0  0  0  0  0  0  0  0  0  0  0  0
    2.0000   -3.6550    0.0000 C   0  0  0  0  0  0  0  0  0  0  0  0
    3.9441   -2.2376    0.0000 H   0  0  0  0  0  0  0  0  0  0  0  0
    4.3426   -1.5473    0.0000 H   0  0  0  0  0  0  0  0  0  0  0  0
    2.3291   -0.4650    0.0000 H   0  0  0  0  0  0  0  0  0  0  0  0
    5.1350   -0.4650    0.0000 H   0  0  0  0  0  0  0  0  0  0  0  0
    2.3291    1.1550    0.0000 H   0  0  0  0  0  0  0  0  0  0  0  0
    5.1350    1.1550    0.0000 H   0  0  0  0  0  0  0  0  0  0  0  0
    2.3291   -1.8450    0.0000 H   0  0  0  0  0  0  0  0  0  0  0  0
    4.2690    3.6550    0.0000 H   0  0  0  0  0  0  0  0  0  0  0  0
    3.1951    3.6550    0.0000 H   0  0  0  0  0  0  0  0  0  0  0  0
    1.6900   -3.1181    0.0000 H   0  0  0  0  0  0  0  0  0  0  0  0
    1.4631   -3.9650    0.0000 H   0  0  0  0  0  0  0  0  0  0  0  0
    2.3100   -4.1919    0.0000 H   0  0  0  0  0  0  0  0  0  0  0  0
  1  2  2  0  0  0  0
  1  3  2  0  0  0  0
  1  6  1  0  0  0  0
  1  8  1  0  0  0  0
  4 14  2  0  0  0  0
  5  9  1  0  0  0  0
  5 14  1  0  0  0  0
  5 22  1  0  0  0  0
  6 23  1  0  0  0  0
  6 24  1  0  0  0  0
  7  9  1  0  0  0  0
  7 10  2  0  0  0  0
  7 11  1  0  0  0  0
  8 12  2  0  0  0  0
  8 13  1  0  0  0  0
  9 16  1  0  0  0  0
  9 17  1  0  0  0  0
 10 12  1  0  0  0  0
 10 18  1  0  0  0  0
 11 13  2  0  0  0  0
 11 19  1  0  0  0  0
 12 20  1  0  0  0  0
 13 21  1  0  0  0  0
 14 15  1  0  0  0  0
 15 25  1  0  0  0  0
 15 26  1  0  0  0  0
 15 27  1  0  0  0  0
M  END
> <PUBCHEM_COMPOUND_CID>
74833

> <PUBCHEM_COMPOUND_CANONICALIZED>
1

> <PUBCHEM_CACTVS_COMPLEXITY>
313

> <PUBCHEM_CACTVS_HBOND_ACCEPTOR>
4

> <PUBCHEM_CACTVS_HBOND_DONOR>
2

> <PUBCHEM_CACTVS_ROTATABLE_BOND>
3

> <PUBCHEM_CACTVS_SUBSKEYS>
AAADccBzMABAAAAAAAAAAAAAAAAAAAAAAAAwAAAAAAAAAAABAAAAHgQQQAAADADB2AQyAYLAAAKIAiFSEHDCABAgAAAIiJgIBIgIICKAkRGEIAhglgCIiAcQgAAOEAAAAAAAAAAgAAAAAAAAAAAAAAAAAA==

> <PUBCHEM_IUPAC_OPENEYE_NAME>
N-[(4-sulfamoylphenyl)methyl]acetamide

> <PUBCHEM_IUPAC_CAS_NAME>
N-[(4-sulfamoylphenyl)methyl]acetamide

> <PUBCHEM_IUPAC_NAME_MARKUP>
<I>N</I>-[(4-sulfamoylphenyl)methyl]acetamide

> <PUBCHEM_IUPAC_NAME>
N-[(4-sulfamoylphenyl)methyl]acetamide

> <PUBCHEM_IUPAC_SYSTEMATIC_NAME>
N-[(4-sulfamoylphenyl)methyl]ethanamide

> <PUBCHEM_IUPAC_TRADITIONAL_NAME>
N-(4-sulfamoylbenzyl)acetamide

> <PUBCHEM_IUPAC_INCHI>
InChI=1S/C9H12N2O3S/c1-7(12)11-6-8-2-4-9(5-3-8)15(10,13)14/h2-5H,6H2,1H3,(H,11,12)(H2,10,13,14)

> <PUBCHEM_IUPAC_INCHIKEY>
AHQONKCJXWTTOW-UHFFFAOYSA-N

> <PUBCHEM_XLOGP3_AA>
-0.4

> <PUBCHEM_EXACT_MASS>
228.056863

> <PUBCHEM_MOLECULAR_FORMULA>
C9H12N2O3S

> <PUBCHEM_MOLECULAR_WEIGHT>
228.27

> <PUBCHEM_OPENEYE_CAN_SMILES>
CC(=O)NCC1=CC=C(C=C1)S(=O)(=O)N

> <PUBCHEM_OPENEYE_ISO_SMILES>
CC(=O)NCC1=CC=C(C=C1)S(=O)(=O)N

> <PUBCHEM_CACTVS_TPSA>
97.6

> <PUBCHEM_MONOISOTOPIC_WEIGHT>
228.056863

> <PUBCHEM_TOTAL_CHARGE>
0

> <PUBCHEM_HEAVY_ATOM_COUNT>
15

> <PUBCHEM_ATOM_DEF_STEREO_COUNT>
0

> <PUBCHEM_ATOM_UDEF_STEREO_COUNT>
0

> <PUBCHEM_BOND_DEF_STEREO_COUNT>
0

> <PUBCHEM_BOND_UDEF_STEREO_COUNT>
0

> <PUBCHEM_ISOTOPIC_ATOM_COUNT>
0

> <PUBCHEM_COMPONENT_COUNT>
1

> <PUBCHEM_CACTVS_TAUTO_COUNT>
-1

> <PUBCHEM_COORDINATE_TYPE>
1
5
255

> <PUBCHEM_BONDANNOTATIONS>
10  12  8
11  13  8
7  10  8
7  11  8
8  12  8
8  13  8

$$$$
