76947
  -OEChem-05242006112D

 14 14  0     0  0  0  0  0  0999 V2000
    5.3667   -0.1407    0.0000 O   0  0  0  0  0  0  0  0  0  0  0  0
    2.5896   -1.4278    0.0000 O   0  0  0  0  0  0  0  0  0  0  0  0
    2.0544    0.2195    0.0000 O   0  0  0  0  0  0  0  0  0  0  0  0
    4.5576   -0.7284    0.0000 N   0  0  0  0  0  0  0  0  0  0  0  0
    5.0576    0.8104    0.0000 C   0  0  0  0  0  0  0  0  0  0  0  0
    4.0576    0.8104    0.0000 C   0  0  0  0  0  0  0  0  0  0  0  0
    3.7486   -0.1407    0.0000 C   0  0  0  0  0  0  0  0  0  0  0  0
    5.6454    1.6194    0.0000 C   0  0  0  0  0  0  0  0  0  0  0  0
    2.7976   -0.4497    0.0000 C   0  0  0  0  0  0  0  0  0  0  0  0
    3.6932    1.3120    0.0000 H   0  0  0  0  0  0  0  0  0  0  0  0
    6.1470    1.2550    0.0000 H   0  0  0  0  0  0  0  0  0  0  0  0
    6.0098    2.1210    0.0000 H   0  0  0  0  0  0  0  0  0  0  0  0
    5.1438    1.9838    0.0000 H   0  0  0  0  0  0  0  0  0  0  0  0
    2.0000   -1.6194    0.0000 H   0  0  0  0  0  0  0  0  0  0  0  0
  1  4  1  0  0  0  0
  1  5  1  0  0  0  0
  2  9  1  0  0  0  0
  2 14  1  0  0  0  0
  3  9  2  0  0  0  0
  4  7  2  0  0  0  0
  5  6  2  0  0  0  0
  5  8  1  0  0  0  0
  6  7  1  0  0  0  0
  6 10  1  0  0  0  0
  7  9  1  0  0  0  0
  8 11  1  0  0  0  0
  8 12  1  0  0  0  0
  8 13  1  0  0  0  0
M  END
> <PUBCHEM_COMPOUND_CID>
76947

> <PUBCHEM_COMPOUND_CANONICALIZED>
1

> <PUBCHEM_CACTVS_COMPLEXITY>
125

> <PUBCHEM_CACTVS_HBOND_ACCEPTOR>
4

> <PUBCHEM_CACTVS_HBOND_DONOR>
1

> <PUBCHEM_CACTVS_ROTATABLE_BOND>
1

> <PUBCHEM_CACTVS_SUBSKEYS>
AAADcYBiMAAAAAAAAAAAAAAAAAAAAWAAAAAAAAAAAAAAAAABgAAAHgAECAAACAyBlgAyjJAQAgCpAaTySgSAAAAmIgAgGCG2bFoCJhoAhZIAUYBmQBkIWcLLAAAAAAAAAAAAAAAAAAAAAAAAAAAAAAAAAA==

> <PUBCHEM_IUPAC_OPENEYE_NAME>
5-methylisoxazole-3-carboxylic acid

> <PUBCHEM_IUPAC_CAS_NAME>
5-methyl-3-isoxazolecarboxylic acid

> <PUBCHEM_IUPAC_NAME_MARKUP>
5-methyl-1,2-oxazole-3-carboxylic acid

> <PUBCHEM_IUPAC_NAME>
5-methyl-1,2-oxazole-3-carboxylic acid

> <PUBCHEM_IUPAC_SYSTEMATIC_NAME>
5-methyl-1,2-oxazole-3-carboxylic acid

> <PUBCHEM_IUPAC_TRADITIONAL_NAME>
5-methylisoxazole-3-carboxylic acid

> <PUBCHEM_IUPAC_INCHI>
InChI=1S/C5H5NO3/c1-3-2-4(5(7)8)6-9-3/h2H,1H3,(H,7,8)

> <PUBCHEM_IUPAC_INCHIKEY>
BNMPIJWVMVNSRD-UHFFFAOYSA-N

> <PUBCHEM_XLOGP3>
0.7

> <PUBCHEM_EXACT_MASS>
127.026943

> <PUBCHEM_MOLECULAR_FORMULA>
C5H5NO3

> <PUBCHEM_MOLECULAR_WEIGHT>
127.1

> <PUBCHEM_OPENEYE_CAN_SMILES>
CC1=CC(=NO1)C(=O)O

> <PUBCHEM_OPENEYE_ISO_SMILES>
CC1=CC(=NO1)C(=O)O

> <PUBCHEM_CACTVS_TPSA>
63.3

> <PUBCHEM_MONOISOTOPIC_WEIGHT>
127.026943

> <PUBCHEM_TOTAL_CHARGE>
0

> <PUBCHEM_HEAVY_ATOM_COUNT>
9

> <PUBCHEM_ATOM_DEF_STEREO_COUNT>
0

> <PUBCHEM_ATOM_UDEF_STEREO_COUNT>
0

> <PUBCHEM_BOND_DEF_STEREO_COUNT>
0

> <PUBCHEM_BOND_UDEF_STEREO_COUNT>
0

> <PUBCHEM_ISOTOPIC_ATOM_COUNT>
0

> <PUBCHEM_COMPONENT_COUNT>
1

> <PUBCHEM_CACTVS_TAUTO_COUNT>
-1

> <PUBCHEM_COORDINATE_TYPE>
1
5
255

> <PUBCHEM_BONDANNOTATIONS>
1  4  8
1  5  8
4  7  8
5  6  8
6  7  8

$$$$
