782539
  -OEChem-05242006122D

 40 42  0     0  0  0  0  0  0999 V2000
    2.0000   -1.5173    0.0000 O   0  0  0  0  0  0  0  0  0  0  0  0
    5.4641   -0.5173    0.0000 N   0  0  0  0  0  0  0  0  0  0  0  0
    3.7320   -1.5173    0.0000 N   0  0  0  0  0  0  0  0  0  0  0  0
    5.4641   -1.5173    0.0000 C   0  0  0  0  0  0  0  0  0  0  0  0
    4.5981   -0.0173    0.0000 C   0  0  0  0  0  0  0  0  0  0  0  0
    4.5981   -2.0173    0.0000 C   0  0  0  0  0  0  0  0  0  0  0  0
    3.7320   -0.5173    0.0000 C   0  0  0  0  0  0  0  0  0  0  0  0
    6.3301   -0.0173    0.0000 C   0  0  0  0  0  0  0  0  0  0  0  0
    6.3301    0.9827    0.0000 C   0  0  0  0  0  0  0  0  0  0  0  0
    2.8660   -2.0173    0.0000 C   0  0  0  0  0  0  0  0  0  0  0  0
    7.1962    1.4827    0.0000 C   0  0  0  0  0  0  0  0  0  0  0  0
    5.4641    1.4827    0.0000 C   0  0  0  0  0  0  0  0  0  0  0  0
    7.1962    2.4827    0.0000 C   0  0  0  0  0  0  0  0  0  0  0  0
    2.8660   -3.0173    0.0000 C   0  0  0  0  0  0  0  0  0  0  0  0
    8.0901    0.9480    0.0000 C   0  0  0  0  0  0  0  0  0  0  0  0
    5.4641    2.4827    0.0000 C   0  0  0  0  0  0  0  0  0  0  0  0
    6.3301    2.9827    0.0000 C   0  0  0  0  0  0  0  0  0  0  0  0
    8.0901    3.0173    0.0000 C   0  0  0  0  0  0  0  0  0  0  0  0
    8.9962    1.4619    0.0000 C   0  0  0  0  0  0  0  0  0  0  0  0
    8.9962    2.5035    0.0000 C   0  0  0  0  0  0  0  0  0  0  0  0
    5.6762   -2.0999    0.0000 H   0  0  0  0  0  0  0  0  0  0  0  0
    6.0747   -1.4097    0.0000 H   0  0  0  0  0  0  0  0  0  0  0  0
    4.9966    0.4576    0.0000 H   0  0  0  0  0  0  0  0  0  0  0  0
    4.1996    0.4576    0.0000 H   0  0  0  0  0  0  0  0  0  0  0  0
    4.1996   -2.4923    0.0000 H   0  0  0  0  0  0  0  0  0  0  0  0
    4.9966   -2.4923    0.0000 H   0  0  0  0  0  0  0  0  0  0  0  0
    3.5200    0.0653    0.0000 H   0  0  0  0  0  0  0  0  0  0  0  0
    3.1215   -0.6250    0.0000 H   0  0  0  0  0  0  0  0  0  0  0  0
    6.5422   -0.5999    0.0000 H   0  0  0  0  0  0  0  0  0  0  0  0
    6.9407    0.0903    0.0000 H   0  0  0  0  0  0  0  0  0  0  0  0
    4.9272    1.1727    0.0000 H   0  0  0  0  0  0  0  0  0  0  0  0
    2.2460   -3.0173    0.0000 H   0  0  0  0  0  0  0  0  0  0  0  0
    2.8660   -3.6373    0.0000 H   0  0  0  0  0  0  0  0  0  0  0  0
    3.4860   -3.0173    0.0000 H   0  0  0  0  0  0  0  0  0  0  0  0
    8.0829    0.3280    0.0000 H   0  0  0  0  0  0  0  0  0  0  0  0
    4.9272    2.7927    0.0000 H   0  0  0  0  0  0  0  0  0  0  0  0
    6.3301    3.6027    0.0000 H   0  0  0  0  0  0  0  0  0  0  0  0
    8.0829    3.6373    0.0000 H   0  0  0  0  0  0  0  0  0  0  0  0
    9.5319    1.1498    0.0000 H   0  0  0  0  0  0  0  0  0  0  0  0
    9.5319    2.8156    0.0000 H   0  0  0  0  0  0  0  0  0  0  0  0
  1 10  2  0  0  0  0
  2  4  1  0  0  0  0
  2  5  1  0  0  0  0
  2  8  1  0  0  0  0
  3  6  1  0  0  0  0
  3  7  1  0  0  0  0
  3 10  1  0  0  0  0
  4  6  1  0  0  0  0
  4 21  1  0  0  0  0
  4 22  1  0  0  0  0
  5  7  1  0  0  0  0
  5 23  1  0  0  0  0
  5 24  1  0  0  0  0
  6 25  1  0  0  0  0
  6 26  1  0  0  0  0
  7 27  1  0  0  0  0
  7 28  1  0  0  0  0
  8  9  1  0  0  0  0
  8 29  1  0  0  0  0
  8 30  1  0  0  0  0
  9 11  1  0  0  0  0
  9 12  2  0  0  0  0
 10 14  1  0  0  0  0
 11 13  1  0  0  0  0
 11 15  2  0  0  0  0
 12 16  1  0  0  0  0
 12 31  1  0  0  0  0
 13 17  1  0  0  0  0
 13 18  2  0  0  0  0
 14 32  1  0  0  0  0
 14 33  1  0  0  0  0
 14 34  1  0  0  0  0
 15 19  1  0  0  0  0
 15 35  1  0  0  0  0
 16 17  2  0  0  0  0
 16 36  1  0  0  0  0
 17 37  1  0  0  0  0
 18 20  1  0  0  0  0
 18 38  1  0  0  0  0
 19 20  2  0  0  0  0
 19 39  1  0  0  0  0
 20 40  1  0  0  0  0
M  END
> <PUBCHEM_COMPOUND_CID>
782539

> <PUBCHEM_COMPOUND_CANONICALIZED>
1

> <PUBCHEM_CACTVS_COMPLEXITY>
336

> <PUBCHEM_CACTVS_HBOND_ACCEPTOR>
2

> <PUBCHEM_CACTVS_HBOND_DONOR>
0

> <PUBCHEM_CACTVS_ROTATABLE_BOND>
2

> <PUBCHEM_CACTVS_SUBSKEYS>
AAADceB7IAAAAAAAAAAAAAAAAAAAAAAAAAA8YIAAAAAAAADBUAAAHgAAAAAADADBmAQyAMMAAACIAiFSEACCAAAgAAAIiAAIBIgIYCKAkRGUIAhghgCIiAcQgMAOgAACAAAQAAAAAAQAACAAAAAAAAAAAA==

> <PUBCHEM_IUPAC_OPENEYE_NAME>
1-[4-(1-naphthylmethyl)piperazin-1-yl]ethanone

> <PUBCHEM_IUPAC_CAS_NAME>
1-[4-(1-naphthalenylmethyl)-1-piperazinyl]ethanone

> <PUBCHEM_IUPAC_NAME_MARKUP>
1-[4-(naphthalen-1-ylmethyl)piperazin-1-yl]ethanone

> <PUBCHEM_IUPAC_NAME>
1-[4-(naphthalen-1-ylmethyl)piperazin-1-yl]ethanone

> <PUBCHEM_IUPAC_SYSTEMATIC_NAME>
1-[4-(naphthalen-1-ylmethyl)piperazin-1-yl]ethanone

> <PUBCHEM_IUPAC_TRADITIONAL_NAME>
1-[4-(1-naphthylmethyl)piperazino]ethanone

> <PUBCHEM_IUPAC_INCHI>
InChI=1S/C17H20N2O/c1-14(20)19-11-9-18(10-12-19)13-16-7-4-6-15-5-2-3-8-17(15)16/h2-8H,9-13H2,1H3

> <PUBCHEM_IUPAC_INCHIKEY>
OCMXSYZDVBVSSV-UHFFFAOYSA-N

> <PUBCHEM_XLOGP3_AA>
2.3

> <PUBCHEM_EXACT_MASS>
268.157563

> <PUBCHEM_MOLECULAR_FORMULA>
C17H20N2O

> <PUBCHEM_MOLECULAR_WEIGHT>
268.35

> <PUBCHEM_OPENEYE_CAN_SMILES>
CC(=O)N1CCN(CC1)CC2=CC=CC3=CC=CC=C32

> <PUBCHEM_OPENEYE_ISO_SMILES>
CC(=O)N1CCN(CC1)CC2=CC=CC3=CC=CC=C32

> <PUBCHEM_CACTVS_TPSA>
23.6

> <PUBCHEM_MONOISOTOPIC_WEIGHT>
268.157563

> <PUBCHEM_TOTAL_CHARGE>
0

> <PUBCHEM_HEAVY_ATOM_COUNT>
20

> <PUBCHEM_ATOM_DEF_STEREO_COUNT>
0

> <PUBCHEM_ATOM_UDEF_STEREO_COUNT>
0

> <PUBCHEM_BOND_DEF_STEREO_COUNT>
0

> <PUBCHEM_BOND_UDEF_STEREO_COUNT>
0

> <PUBCHEM_ISOTOPIC_ATOM_COUNT>
0

> <PUBCHEM_COMPONENT_COUNT>
1

> <PUBCHEM_CACTVS_TAUTO_COUNT>
-1

> <PUBCHEM_COORDINATE_TYPE>
1
5
255

> <PUBCHEM_BONDANNOTATIONS>
11  13  8
11  15  8
12  16  8
13  17  8
13  18  8
15  19  8
16  17  8
18  20  8
19  20  8
9  11  8
9  12  8

$$$$
