787400
  -OEChem-05242006122D

 31 33  0     0  0  0  0  0  0999 V2000
    7.7619    1.0306    0.0000 O   0  0  0  0  0  0  0  0  0  0  0  0
    6.2619    0.1645    0.0000 N   0  0  0  0  0  0  0  0  0  0  0  0
    4.6783    0.9693    0.0000 N   0  0  0  0  0  0  0  0  0  0  0  0
    4.6783   -0.6402    0.0000 N   0  0  0  0  0  0  0  0  0  0  0  0
    6.7619   -0.7015    0.0000 C   0  0  0  0  0  0  0  0  0  0  0  0
    5.2619    0.1645    0.0000 C   0  0  0  0  0  0  0  0  0  0  0  0
    3.7320    0.6645    0.0000 C   0  0  0  0  0  0  0  0  0  0  0  0
    3.7320   -0.3355    0.0000 C   0  0  0  0  0  0  0  0  0  0  0  0
    7.7619   -0.7015    0.0000 C   0  0  0  0  0  0  0  0  0  0  0  0
    2.8660    1.1645    0.0000 C   0  0  0  0  0  0  0  0  0  0  0  0
    8.2619    0.1645    0.0000 C   0  0  0  0  0  0  0  0  0  0  0  0
    2.8660   -0.8355    0.0000 C   0  0  0  0  0  0  0  0  0  0  0  0
    8.2619   -1.5675    0.0000 C   0  0  0  0  0  0  0  0  0  0  0  0
    2.0000    0.6645    0.0000 C   0  0  0  0  0  0  0  0  0  0  0  0
    2.0000   -0.3355    0.0000 C   0  0  0  0  0  0  0  0  0  0  0  0
    9.2619    0.1645    0.0000 C   0  0  0  0  0  0  0  0  0  0  0  0
    9.2619   -1.5675    0.0000 C   0  0  0  0  0  0  0  0  0  0  0  0
    9.7619   -0.7015    0.0000 C   0  0  0  0  0  0  0  0  0  0  0  0
    6.1793   -0.9135    0.0000 H   0  0  0  0  0  0  0  0  0  0  0  0
    6.8695   -1.3121    0.0000 H   0  0  0  0  0  0  0  0  0  0  0  0
    6.5719    0.7015    0.0000 H   0  0  0  0  0  0  0  0  0  0  0  0
    4.8709    1.5586    0.0000 H   0  0  0  0  0  0  0  0  0  0  0  0
    2.8660    1.7845    0.0000 H   0  0  0  0  0  0  0  0  0  0  0  0
    2.8660   -1.4555    0.0000 H   0  0  0  0  0  0  0  0  0  0  0  0
    7.9519   -2.1044    0.0000 H   0  0  0  0  0  0  0  0  0  0  0  0
    1.4631    0.9745    0.0000 H   0  0  0  0  0  0  0  0  0  0  0  0
    1.4631   -0.6455    0.0000 H   0  0  0  0  0  0  0  0  0  0  0  0
    9.5719    0.7015    0.0000 H   0  0  0  0  0  0  0  0  0  0  0  0
    9.5719   -2.1044    0.0000 H   0  0  0  0  0  0  0  0  0  0  0  0
   10.3819   -0.7015    0.0000 H   0  0  0  0  0  0  0  0  0  0  0  0
    8.0719    1.5675    0.0000 H   0  0  0  0  0  0  0  0  0  0  0  0
  1 11  1  0  0  0  0
  1 31  1  0  0  0  0
  2  5  1  0  0  0  0
  2  6  1  0  0  0  0
  2 21  1  0  0  0  0
  3  6  1  0  0  0  0
  3  7  1  0  0  0  0
  3 22  1  0  0  0  0
  4  6  2  0  0  0  0
  4  8  1  0  0  0  0
  5  9  1  0  0  0  0
  5 19  1  0  0  0  0
  5 20  1  0  0  0  0
  7  8  1  0  0  0  0
  7 10  2  0  0  0  0
  8 12  2  0  0  0  0
  9 11  1  0  0  0  0
  9 13  2  0  0  0  0
 10 14  1  0  0  0  0
 10 23  1  0  0  0  0
 11 16  2  0  0  0  0
 12 15  1  0  0  0  0
 12 24  1  0  0  0  0
 13 17  1  0  0  0  0
 13 25  1  0  0  0  0
 14 15  2  0  0  0  0
 14 26  1  0  0  0  0
 15 27  1  0  0  0  0
 16 18  1  0  0  0  0
 16 28  1  0  0  0  0
 17 18  2  0  0  0  0
 17 29  1  0  0  0  0
 18 30  1  0  0  0  0
M  END
> <PUBCHEM_COMPOUND_CID>
787400

> <PUBCHEM_COMPOUND_CANONICALIZED>
1

> <PUBCHEM_CACTVS_COMPLEXITY>
274

> <PUBCHEM_CACTVS_HBOND_ACCEPTOR>
3

> <PUBCHEM_CACTVS_HBOND_DONOR>
3

> <PUBCHEM_CACTVS_ROTATABLE_BOND>
3

> <PUBCHEM_CACTVS_SUBSKEYS>
AAADccBzIAAAAAAAAAAAAAAAAAAAAWAAAAAwYAAAAAAAAFgB9AAAHgAQCAAADAzBngQx1rbJkgCgAyRiZACCgC2hMqAJmaA+fJiIbqLCmZOUcAhu0BNI2CeQwCAOAAAAAAAIACAAAAAAABAAQAAAAAAAAA==

> <PUBCHEM_IUPAC_OPENEYE_NAME>
2-[(1H-benzimidazol-2-ylamino)methyl]phenol

> <PUBCHEM_IUPAC_CAS_NAME>
2-[(1H-benzimidazol-2-ylamino)methyl]phenol

> <PUBCHEM_IUPAC_NAME_MARKUP>
2-[(1<I>H</I>-benzimidazol-2-ylamino)methyl]phenol

> <PUBCHEM_IUPAC_NAME>
2-[(1H-benzimidazol-2-ylamino)methyl]phenol

> <PUBCHEM_IUPAC_SYSTEMATIC_NAME>
2-[(1H-benzimidazol-2-ylamino)methyl]phenol

> <PUBCHEM_IUPAC_TRADITIONAL_NAME>
2-[(1H-benzimidazol-2-ylamino)methyl]phenol

> <PUBCHEM_IUPAC_INCHI>
InChI=1S/C14H13N3O/c18-13-8-4-1-5-10(13)9-15-14-16-11-6-2-3-7-12(11)17-14/h1-8,18H,9H2,(H2,15,16,17)

> <PUBCHEM_IUPAC_INCHIKEY>
OCDMDLRMBVJKCG-UHFFFAOYSA-N

> <PUBCHEM_XLOGP3_AA>
2.9

> <PUBCHEM_EXACT_MASS>
239.105862

> <PUBCHEM_MOLECULAR_FORMULA>
C14H13N3O

> <PUBCHEM_MOLECULAR_WEIGHT>
239.27

> <PUBCHEM_OPENEYE_CAN_SMILES>
C1=CC=C(C(=C1)CNC2=NC3=CC=CC=C3N2)O

> <PUBCHEM_OPENEYE_ISO_SMILES>
C1=CC=C(C(=C1)CNC2=NC3=CC=CC=C3N2)O

> <PUBCHEM_CACTVS_TPSA>
60.9

> <PUBCHEM_MONOISOTOPIC_WEIGHT>
239.105862

> <PUBCHEM_TOTAL_CHARGE>
0

> <PUBCHEM_HEAVY_ATOM_COUNT>
18

> <PUBCHEM_ATOM_DEF_STEREO_COUNT>
0

> <PUBCHEM_ATOM_UDEF_STEREO_COUNT>
0

> <PUBCHEM_BOND_DEF_STEREO_COUNT>
0

> <PUBCHEM_BOND_UDEF_STEREO_COUNT>
0

> <PUBCHEM_ISOTOPIC_ATOM_COUNT>
0

> <PUBCHEM_COMPONENT_COUNT>
1

> <PUBCHEM_CACTVS_TAUTO_COUNT>
-1

> <PUBCHEM_COORDINATE_TYPE>
1
5
255

> <PUBCHEM_BONDANNOTATIONS>
10  14  8
11  16  8
12  15  8
13  17  8
14  15  8
16  18  8
17  18  8
3  6  8
3  7  8
4  6  8
4  8  8
7  10  8
7  8  8
8  12  8
9  11  8
9  13  8

$$$$
