811874
  -OEChem-05242006122D

 29 30  0     0  0  0  0  0  0999 V2000
    5.6974    1.8649    0.0000 S   0  0  0  0  0  0  0  0  0  0  0  0
    2.7431    0.9650    0.0000 O   0  0  0  0  0  0  0  0  0  0  0  0
    3.9021    2.2521    0.0000 O   0  0  0  0  0  0  0  0  0  0  0  0
    7.0064    0.9139    0.0000 N   0  0  0  0  0  0  0  0  0  0  0  0
    4.4374    0.6048    0.0000 N   0  0  0  0  0  0  0  0  0  0  0  0
    6.1974    0.3261    0.0000 C   0  0  0  0  0  0  0  0  0  0  0  0
    6.1974   -0.6739    0.0000 C   0  0  0  0  0  0  0  0  0  0  0  0
    5.3884    0.9139    0.0000 C   0  0  0  0  0  0  0  0  0  0  0  0
    6.6974    1.8649    0.0000 C   0  0  0  0  0  0  0  0  0  0  0  0
    5.3314   -1.1739    0.0000 C   0  0  0  0  0  0  0  0  0  0  0  0
    7.0634   -1.1739    0.0000 C   0  0  0  0  0  0  0  0  0  0  0  0
    5.3314   -2.1739    0.0000 C   0  0  0  0  0  0  0  0  0  0  0  0
    7.0634   -2.1739    0.0000 C   0  0  0  0  0  0  0  0  0  0  0  0
    7.2852    2.6739    0.0000 C   0  0  0  0  0  0  0  0  0  0  0  0
    6.1974   -2.6739    0.0000 C   0  0  0  0  0  0  0  0  0  0  0  0
    3.6942    1.2740    0.0000 C   0  0  0  0  0  0  0  0  0  0  0  0
    2.0000    1.6341    0.0000 C   0  0  0  0  0  0  0  0  0  0  0  0
    4.7945   -0.8639    0.0000 H   0  0  0  0  0  0  0  0  0  0  0  0
    7.6004   -0.8639    0.0000 H   0  0  0  0  0  0  0  0  0  0  0  0
    4.3084   -0.0016    0.0000 H   0  0  0  0  0  0  0  0  0  0  0  0
    4.7945   -2.4839    0.0000 H   0  0  0  0  0  0  0  0  0  0  0  0
    7.6004   -2.4839    0.0000 H   0  0  0  0  0  0  0  0  0  0  0  0
    7.7868    2.3095    0.0000 H   0  0  0  0  0  0  0  0  0  0  0  0
    7.6496    3.1755    0.0000 H   0  0  0  0  0  0  0  0  0  0  0  0
    6.7836    3.0384    0.0000 H   0  0  0  0  0  0  0  0  0  0  0  0
    6.1974   -3.2939    0.0000 H   0  0  0  0  0  0  0  0  0  0  0  0
    2.4149    2.0948    0.0000 H   0  0  0  0  0  0  0  0  0  0  0  0
    1.5392    2.0489    0.0000 H   0  0  0  0  0  0  0  0  0  0  0  0
    1.5851    1.1733    0.0000 H   0  0  0  0  0  0  0  0  0  0  0  0
  1  8  1  0  0  0  0
  1  9  1  0  0  0  0
  2 16  1  0  0  0  0
  2 17  1  0  0  0  0
  3 16  2  0  0  0  0
  4  6  1  0  0  0  0
  4  9  2  0  0  0  0
  5  8  1  0  0  0  0
  5 16  1  0  0  0  0
  5 20  1  0  0  0  0
  6  7  1  0  0  0  0
  6  8  2  0  0  0  0
  7 10  2  0  0  0  0
  7 11  1  0  0  0  0
  9 14  1  0  0  0  0
 10 12  1  0  0  0  0
 10 18  1  0  0  0  0
 11 13  2  0  0  0  0
 11 19  1  0  0  0  0
 12 15  2  0  0  0  0
 12 21  1  0  0  0  0
 13 15  1  0  0  0  0
 13 22  1  0  0  0  0
 14 23  1  0  0  0  0
 14 24  1  0  0  0  0
 14 25  1  0  0  0  0
 15 26  1  0  0  0  0
 17 27  1  0  0  0  0
 17 28  1  0  0  0  0
 17 29  1  0  0  0  0
M  END
> <PUBCHEM_COMPOUND_CID>
811874

> <PUBCHEM_COMPOUND_CANONICALIZED>
1

> <PUBCHEM_CACTVS_COMPLEXITY>
269

> <PUBCHEM_CACTVS_HBOND_ACCEPTOR>
4

> <PUBCHEM_CACTVS_HBOND_DONOR>
1

> <PUBCHEM_CACTVS_ROTATABLE_BOND>
3

> <PUBCHEM_CACTVS_SUBSKEYS>
AAADccBzMABAAAAAAAAAAAAAAAAAAWAAAAAwAAAAAAAAAAABwAAAHgQQAAAADAiBXgIyiZLIFAisAyRiXACC8KBhGDkIiDQwVJkIYKLgkRGUIAhghADoyAcQgIAOAAAAAAAAAAAAAAAAAAAAAAAAAAAAAA==

> <PUBCHEM_IUPAC_OPENEYE_NAME>
methyl N-(2-methyl-4-phenyl-thiazol-5-yl)carbamate

> <PUBCHEM_IUPAC_CAS_NAME>
N-(2-methyl-4-phenyl-5-thiazolyl)carbamic acid methyl ester

> <PUBCHEM_IUPAC_NAME_MARKUP>
methyl <I>N</I>-(2-methyl-4-phenyl-1,3-thiazol-5-yl)carbamate

> <PUBCHEM_IUPAC_NAME>
methyl N-(2-methyl-4-phenyl-1,3-thiazol-5-yl)carbamate

> <PUBCHEM_IUPAC_SYSTEMATIC_NAME>
methyl N-(2-methyl-4-phenyl-1,3-thiazol-5-yl)carbamate

> <PUBCHEM_IUPAC_TRADITIONAL_NAME>
N-(2-methyl-4-phenyl-thiazol-5-yl)carbamic acid methyl ester

> <PUBCHEM_IUPAC_INCHI>
InChI=1S/C12H12N2O2S/c1-8-13-10(9-6-4-3-5-7-9)11(17-8)14-12(15)16-2/h3-7H,1-2H3,(H,14,15)

> <PUBCHEM_IUPAC_INCHIKEY>
WVXKXRCDQRXTDH-UHFFFAOYSA-N

> <PUBCHEM_XLOGP3_AA>
2.9

> <PUBCHEM_EXACT_MASS>
248.061949

> <PUBCHEM_MOLECULAR_FORMULA>
C12H12N2O2S

> <PUBCHEM_MOLECULAR_WEIGHT>
248.3

> <PUBCHEM_OPENEYE_CAN_SMILES>
CC1=NC(=C(S1)NC(=O)OC)C2=CC=CC=C2

> <PUBCHEM_OPENEYE_ISO_SMILES>
CC1=NC(=C(S1)NC(=O)OC)C2=CC=CC=C2

> <PUBCHEM_CACTVS_TPSA>
79.5

> <PUBCHEM_MONOISOTOPIC_WEIGHT>
248.061949

> <PUBCHEM_TOTAL_CHARGE>
0

> <PUBCHEM_HEAVY_ATOM_COUNT>
17

> <PUBCHEM_ATOM_DEF_STEREO_COUNT>
0

> <PUBCHEM_ATOM_UDEF_STEREO_COUNT>
0

> <PUBCHEM_BOND_DEF_STEREO_COUNT>
0

> <PUBCHEM_BOND_UDEF_STEREO_COUNT>
0

> <PUBCHEM_ISOTOPIC_ATOM_COUNT>
0

> <PUBCHEM_COMPONENT_COUNT>
1

> <PUBCHEM_CACTVS_TAUTO_COUNT>
-1

> <PUBCHEM_COORDINATE_TYPE>
1
5
255

> <PUBCHEM_BONDANNOTATIONS>
1  8  8
1  9  8
10  12  8
11  13  8
12  15  8
13  15  8
4  6  8
4  9  8
6  8  8
7  10  8
7  11  8

$$$$
