8405578
  -OEChem-05242006122D

 34 35  0     0  0  0  0  0  0999 V2000
    3.0000   -4.2500    0.0000 Cl  0  0  0  0  0  0  0  0  0  0  0  0
    3.0000   -0.2500    0.0000 S   0  0  0  0  0  0  0  0  0  0  0  0
    2.0000   -0.2500    0.0000 O   0  0  0  0  0  0  0  0  0  0  0  0
    4.0000   -0.2500    0.0000 O   0  0  0  0  0  0  0  0  0  0  0  0
    2.1340    4.2500    0.0000 O   0  0  0  0  0  0  0  0  0  0  0  0
    3.0000    0.7500    0.0000 N   0  0  0  0  0  0  0  0  0  0  0  0
    3.0000    2.7500    0.0000 N   0  0  0  0  0  0  0  0  0  0  0  0
    2.1340    1.2500    0.0000 C   0  0  0  0  0  0  0  0  0  0  0  0
    3.8660    1.2500    0.0000 C   0  0  0  0  0  0  0  0  0  0  0  0
    2.1340    2.2500    0.0000 C   0  0  0  0  0  0  0  0  0  0  0  0
    3.8660    2.2500    0.0000 C   0  0  0  0  0  0  0  0  0  0  0  0
    3.0000   -1.2500    0.0000 C   0  0  0  0  0  0  0  0  0  0  0  0
    3.0000    3.7500    0.0000 C   0  0  0  0  0  0  0  0  0  0  0  0
    3.8660   -1.7500    0.0000 C   0  0  0  0  0  0  0  0  0  0  0  0
    2.1340   -1.7500    0.0000 C   0  0  0  0  0  0  0  0  0  0  0  0
    3.8660    4.2500    0.0000 C   0  0  0  0  0  0  0  0  0  0  0  0
    3.8660   -2.7500    0.0000 C   0  0  0  0  0  0  0  0  0  0  0  0
    2.1340   -2.7500    0.0000 C   0  0  0  0  0  0  0  0  0  0  0  0
    3.0000   -3.2500    0.0000 C   0  0  0  0  0  0  0  0  0  0  0  0
    1.5234    1.3577    0.0000 H   0  0  0  0  0  0  0  0  0  0  0  0
    1.9219    0.6674    0.0000 H   0  0  0  0  0  0  0  0  0  0  0  0
    4.0781    0.6674    0.0000 H   0  0  0  0  0  0  0  0  0  0  0  0
    4.4766    1.3577    0.0000 H   0  0  0  0  0  0  0  0  0  0  0  0
    1.9219    2.8326    0.0000 H   0  0  0  0  0  0  0  0  0  0  0  0
    1.5234    2.1423    0.0000 H   0  0  0  0  0  0  0  0  0  0  0  0
    4.4766    2.1423    0.0000 H   0  0  0  0  0  0  0  0  0  0  0  0
    4.0781    2.8326    0.0000 H   0  0  0  0  0  0  0  0  0  0  0  0
    4.4030   -1.4400    0.0000 H   0  0  0  0  0  0  0  0  0  0  0  0
    1.5970   -1.4400    0.0000 H   0  0  0  0  0  0  0  0  0  0  0  0
    4.1760    3.7131    0.0000 H   0  0  0  0  0  0  0  0  0  0  0  0
    4.4030    4.5600    0.0000 H   0  0  0  0  0  0  0  0  0  0  0  0
    3.5560    4.7869    0.0000 H   0  0  0  0  0  0  0  0  0  0  0  0
    4.4030   -3.0600    0.0000 H   0  0  0  0  0  0  0  0  0  0  0  0
    1.5970   -3.0600    0.0000 H   0  0  0  0  0  0  0  0  0  0  0  0
  1 19  1  0  0  0  0
  2  3  2  0  0  0  0
  2  4  2  0  0  0  0
  2  6  1  0  0  0  0
  2 12  1  0  0  0  0
  5 13  2  0  0  0  0
  6  8  1  0  0  0  0
  6  9  1  0  0  0  0
  7 10  1  0  0  0  0
  7 11  1  0  0  0  0
  7 13  1  0  0  0  0
  8 10  1  0  0  0  0
  8 20  1  0  0  0  0
  8 21  1  0  0  0  0
  9 11  1  0  0  0  0
  9 22  1  0  0  0  0
  9 23  1  0  0  0  0
 10 24  1  0  0  0  0
 10 25  1  0  0  0  0
 11 26  1  0  0  0  0
 11 27  1  0  0  0  0
 12 14  2  0  0  0  0
 12 15  1  0  0  0  0
 13 16  1  0  0  0  0
 14 17  1  0  0  0  0
 14 28  1  0  0  0  0
 15 18  2  0  0  0  0
 15 29  1  0  0  0  0
 16 30  1  0  0  0  0
 16 31  1  0  0  0  0
 16 32  1  0  0  0  0
 17 19  2  0  0  0  0
 17 33  1  0  0  0  0
 18 19  1  0  0  0  0
 18 34  1  0  0  0  0
M  END
> <PUBCHEM_COMPOUND_CID>
8405578

> <PUBCHEM_COMPOUND_CANONICALIZED>
1

> <PUBCHEM_CACTVS_COMPLEXITY>
419

> <PUBCHEM_CACTVS_HBOND_ACCEPTOR>
4

> <PUBCHEM_CACTVS_HBOND_DONOR>
0

> <PUBCHEM_CACTVS_ROTATABLE_BOND>
2

> <PUBCHEM_CACTVS_SUBSKEYS>
AAADccBzMABEAAAAAAAAAAAAAAAAAAAAAAA8QAAAAAAAAAABAAAAHgYAQAAACALB0CQyAYMAAAKIACFSEHBCABAgBQAIiBgIAogIYCKBExCQIAAghgCIiAcAAAAAAAIAAAAAAAAABAAAAAAAAAAAAAAAAA==

> <PUBCHEM_IUPAC_OPENEYE_NAME>
1-[4-(4-chlorophenyl)sulfonylpiperazin-1-yl]ethanone

> <PUBCHEM_IUPAC_CAS_NAME>
1-[4-(4-chlorophenyl)sulfonyl-1-piperazinyl]ethanone

> <PUBCHEM_IUPAC_NAME_MARKUP>
1-[4-(4-chlorophenyl)sulfonylpiperazin-1-yl]ethanone

> <PUBCHEM_IUPAC_NAME>
1-[4-(4-chlorophenyl)sulfonylpiperazin-1-yl]ethanone

> <PUBCHEM_IUPAC_SYSTEMATIC_NAME>
1-[4-(4-chlorophenyl)sulfonylpiperazin-1-yl]ethanone

> <PUBCHEM_IUPAC_TRADITIONAL_NAME>
1-[4-(4-chlorophenyl)sulfonylpiperazino]ethanone

> <PUBCHEM_IUPAC_INCHI>
InChI=1S/C12H15ClN2O3S/c1-10(16)14-6-8-15(9-7-14)19(17,18)12-4-2-11(13)3-5-12/h2-5H,6-9H2,1H3

> <PUBCHEM_IUPAC_INCHIKEY>
VTRBWFKJTCGLDP-UHFFFAOYSA-N

> <PUBCHEM_XLOGP3_AA>
1

> <PUBCHEM_EXACT_MASS>
302.049191

> <PUBCHEM_MOLECULAR_FORMULA>
C12H15ClN2O3S

> <PUBCHEM_MOLECULAR_WEIGHT>
302.78

> <PUBCHEM_OPENEYE_CAN_SMILES>
CC(=O)N1CCN(CC1)S(=O)(=O)C2=CC=C(C=C2)Cl

> <PUBCHEM_OPENEYE_ISO_SMILES>
CC(=O)N1CCN(CC1)S(=O)(=O)C2=CC=C(C=C2)Cl

> <PUBCHEM_CACTVS_TPSA>
66.1

> <PUBCHEM_MONOISOTOPIC_WEIGHT>
302.049191

> <PUBCHEM_TOTAL_CHARGE>
0

> <PUBCHEM_HEAVY_ATOM_COUNT>
19

> <PUBCHEM_ATOM_DEF_STEREO_COUNT>
0

> <PUBCHEM_ATOM_UDEF_STEREO_COUNT>
0

> <PUBCHEM_BOND_DEF_STEREO_COUNT>
0

> <PUBCHEM_BOND_UDEF_STEREO_COUNT>
0

> <PUBCHEM_ISOTOPIC_ATOM_COUNT>
0

> <PUBCHEM_COMPONENT_COUNT>
1

> <PUBCHEM_CACTVS_TAUTO_COUNT>
-1

> <PUBCHEM_COORDINATE_TYPE>
1
5
255

> <PUBCHEM_BONDANNOTATIONS>
12  14  8
12  15  8
14  17  8
15  18  8
17  19  8
18  19  8

$$$$
