89847
  -OEChem-05242006112D

 23 23  0     0  0  0  0  0  0999 V2000
    3.0000    2.0950    0.0000 S   0  0  0  0  0  0  0  0  0  0  0  0
    4.0000    2.0950    0.0000 O   0  0  0  0  0  0  0  0  0  0  0  0
    2.0000    2.0950    0.0000 O   0  0  0  0  0  0  0  0  0  0  0  0
    2.1340   -2.4050    0.0000 O   0  0  0  0  0  0  0  0  0  0  0  0
    3.8660   -2.4050    0.0000 O   0  0  0  0  0  0  0  0  0  0  0  0
    3.0000    3.0950    0.0000 N   0  0  0  0  0  0  0  0  0  0  0  0
    3.0000    1.0950    0.0000 C   0  0  0  0  0  0  0  0  0  0  0  0
    2.1340    0.5950    0.0000 C   0  0  0  0  0  0  0  0  0  0  0  0
    3.8660    0.5950    0.0000 C   0  0  0  0  0  0  0  0  0  0  0  0
    3.0000   -0.9050    0.0000 C   0  0  0  0  0  0  0  0  0  0  0  0
    2.1340   -0.4050    0.0000 C   0  0  0  0  0  0  0  0  0  0  0  0
    3.8660   -0.4050    0.0000 C   0  0  0  0  0  0  0  0  0  0  0  0
    3.0000   -1.9050    0.0000 C   0  0  0  0  0  0  0  0  0  0  0  0
    2.1340   -3.4050    0.0000 C   0  0  0  0  0  0  0  0  0  0  0  0
    1.5970    0.9050    0.0000 H   0  0  0  0  0  0  0  0  0  0  0  0
    4.4030    0.9050    0.0000 H   0  0  0  0  0  0  0  0  0  0  0  0
    1.5970   -0.7150    0.0000 H   0  0  0  0  0  0  0  0  0  0  0  0
    4.4030   -0.7150    0.0000 H   0  0  0  0  0  0  0  0  0  0  0  0
    3.5369    3.4050    0.0000 H   0  0  0  0  0  0  0  0  0  0  0  0
    2.4631    3.4050    0.0000 H   0  0  0  0  0  0  0  0  0  0  0  0
    1.5140   -3.4050    0.0000 H   0  0  0  0  0  0  0  0  0  0  0  0
    2.1340   -4.0250    0.0000 H   0  0  0  0  0  0  0  0  0  0  0  0
    2.7540   -3.4050    0.0000 H   0  0  0  0  0  0  0  0  0  0  0  0
  1  2  2  0  0  0  0
  1  3  2  0  0  0  0
  1  6  1  0  0  0  0
  1  7  1  0  0  0  0
  4 13  1  0  0  0  0
  4 14  1  0  0  0  0
  5 13  2  0  0  0  0
  6 19  1  0  0  0  0
  6 20  1  0  0  0  0
  7  8  2  0  0  0  0
  7  9  1  0  0  0  0
  8 11  1  0  0  0  0
  8 15  1  0  0  0  0
  9 12  2  0  0  0  0
  9 16  1  0  0  0  0
 10 11  2  0  0  0  0
 10 12  1  0  0  0  0
 10 13  1  0  0  0  0
 11 17  1  0  0  0  0
 12 18  1  0  0  0  0
 14 21  1  0  0  0  0
 14 22  1  0  0  0  0
 14 23  1  0  0  0  0
M  END
> <PUBCHEM_COMPOUND_CID>
89847

> <PUBCHEM_COMPOUND_CANONICALIZED>
1

> <PUBCHEM_CACTVS_COMPLEXITY>
298

> <PUBCHEM_CACTVS_HBOND_ACCEPTOR>
5

> <PUBCHEM_CACTVS_HBOND_DONOR>
1

> <PUBCHEM_CACTVS_ROTATABLE_BOND>
3

> <PUBCHEM_CACTVS_SUBSKEYS>
AAADccByOABAAAAAAAAAAAAAAAAAAAAAAAAwAAAAAAAAAAABAAAAGgQQQAAADACA2AIyCYAABAKIAiDSCHBCABAkAAAIiBkACMgIJjKANRiAMQAkwAEIqYeIyCCOEAAAAAAAAAAgAAAAAAAAAAAAAAAAAA==

> <PUBCHEM_IUPAC_OPENEYE_NAME>
methyl 4-sulfamoylbenzoate

> <PUBCHEM_IUPAC_CAS_NAME>
4-sulfamoylbenzoic acid methyl ester

> <PUBCHEM_IUPAC_NAME_MARKUP>
methyl 4-sulfamoylbenzoate

> <PUBCHEM_IUPAC_NAME>
methyl 4-sulfamoylbenzoate

> <PUBCHEM_IUPAC_SYSTEMATIC_NAME>
methyl 4-sulfamoylbenzoate

> <PUBCHEM_IUPAC_TRADITIONAL_NAME>
4-sulfamoylbenzoic acid methyl ester

> <PUBCHEM_IUPAC_INCHI>
InChI=1S/C8H9NO4S/c1-13-8(10)6-2-4-7(5-3-6)14(9,11)12/h2-5H,1H3,(H2,9,11,12)

> <PUBCHEM_IUPAC_INCHIKEY>
XLOVNJUCAFIANM-UHFFFAOYSA-N

> <PUBCHEM_XLOGP3>
0.6

> <PUBCHEM_EXACT_MASS>
215.025229

> <PUBCHEM_MOLECULAR_FORMULA>
C8H9NO4S

> <PUBCHEM_MOLECULAR_WEIGHT>
215.23

> <PUBCHEM_OPENEYE_CAN_SMILES>
COC(=O)C1=CC=C(C=C1)S(=O)(=O)N

> <PUBCHEM_OPENEYE_ISO_SMILES>
COC(=O)C1=CC=C(C=C1)S(=O)(=O)N

> <PUBCHEM_CACTVS_TPSA>
94.8

> <PUBCHEM_MONOISOTOPIC_WEIGHT>
215.025229

> <PUBCHEM_TOTAL_CHARGE>
0

> <PUBCHEM_HEAVY_ATOM_COUNT>
14

> <PUBCHEM_ATOM_DEF_STEREO_COUNT>
0

> <PUBCHEM_ATOM_UDEF_STEREO_COUNT>
0

> <PUBCHEM_BOND_DEF_STEREO_COUNT>
0

> <PUBCHEM_BOND_UDEF_STEREO_COUNT>
0

> <PUBCHEM_ISOTOPIC_ATOM_COUNT>
0

> <PUBCHEM_COMPONENT_COUNT>
1

> <PUBCHEM_CACTVS_TAUTO_COUNT>
-1

> <PUBCHEM_COORDINATE_TYPE>
1
5
255

> <PUBCHEM_BONDANNOTATIONS>
10  11  8
10  12  8
7  8  8
7  9  8
8  11  8
9  12  8

$$$$
