91864495
  -OEChem-05242006132D

253258  0     1  0  0  0  0  0999 V2000
   12.1985    8.9581    0.0000 S   0  0  0  0  0  0  0  0  0  0  0  0
   13.1750    9.1737    0.0000 S   0  0  0  0  0  0  0  0  0  0  0  0
    5.3499   -1.4691    0.0000 O   0  0  0  0  0  0  0  0  0  0  0  0
    5.1191    1.8626    0.0000 O   0  0  0  0  0  0  0  0  0  0  0  0
   23.1798   -2.8812    0.0000 O   0  0  0  0  0  0  0  0  0  0  0  0
   21.3416   -5.6695    0.0000 O   0  0  0  0  0  0  0  0  0  0  0  0
   24.2833   -1.1395    0.0000 O   0  0  0  0  0  0  0  0  0  0  0  0
    6.7263   -4.5120    0.0000 O   0  0  0  0  0  0  0  0  0  0  0  0
    6.0629    5.0663    0.0000 O   0  0  0  0  0  0  0  0  0  0  0  0
   23.9322    0.3727    0.0000 O   0  0  0  0  0  0  0  0  0  0  0  0
   18.6474   -7.6432    0.0000 O   0  0  0  0  0  0  0  0  0  0  0  0
   22.1612   -7.8351    0.0000 O   0  0  0  0  0  0  0  0  0  0  0  0
    9.0762   -6.8852    0.0000 O   0  0  0  0  0  0  0  0  0  0  0  0
    8.0631    7.7408    0.0000 O   0  0  0  0  0  0  0  0  0  0  0  0
   23.5044    3.6849    0.0000 O   0  0  0  0  0  0  0  0  0  0  0  0
   20.7058   -8.7742    0.0000 O   0  0  0  0  0  0  0  0  0  0  0  0
   25.7967    3.3572    0.0000 O   0  0  0  0  0  0  0  0  0  0  0  0
   15.4346   -8.5553    0.0000 O   0  0  0  0  0  0  0  0  0  0  0  0
   25.9164    1.6293    0.0000 O   0  0  0  0  0  0  0  0  0  0  0  0
   12.1053   -8.2916    0.0000 O   0  0  0  0  0  0  0  0  0  0  0  0
   21.9501    6.6409    0.0000 O   0  0  0  0  0  0  0  0  0  0  0  0
   10.3730    9.9215    0.0000 O   0  0  0  0  0  0  0  0  0  0  0  0
    3.3551    7.6382    0.0000 O   0  0  0  0  0  0  0  0  0  0  0  0
   10.6046  -10.0550    0.0000 O   0  0  0  0  0  0  0  0  0  0  0  0
    8.8645    9.0703    0.0000 O   0  0  0  0  0  0  0  0  0  0  0  0
    9.0796   -9.2338    0.0000 O   0  0  0  0  0  0  0  0  0  0  0  0
   19.4638    8.8707    0.0000 O   0  0  0  0  0  0  0  0  0  0  0  0
   22.6328    8.8882    0.0000 O   0  0  0  0  0  0  0  0  0  0  0  0
   16.3567   10.0953    0.0000 O   0  0  0  0  0  0  0  0  0  0  0  0
    6.1329   -0.2422    0.0000 N   0  0  0  0  0  0  0  0  0  0  0  0
   21.8129   -3.3813    0.0000 N   0  0  0  0  0  0  0  0  0  0  0  0
    6.2803    2.7401    0.0000 N   0  0  0  0  0  0  0  0  0  0  0  0
    7.0332   -3.0892    0.0000 N   0  0  0  0  0  0  0  0  0  0  0  0
   19.8861   -5.6623    0.0000 N   0  0  0  0  0  0  0  0  0  0  0  0
   22.8250   -0.5720    0.0000 N   0  0  0  0  0  0  0  0  0  0  0  0
    7.4570    5.4845    0.0000 N   0  0  0  0  0  0  0  0  0  0  0  0
    8.8684   -5.4446    0.0000 N   0  0  0  0  0  0  0  0  0  0  0  0
   22.7955    2.4138    0.0000 N   0  0  0  0  0  0  0  0  0  0  0  0
    3.4203    2.6959    0.0000 N   0  0  0  0  0  0  0  0  0  0  0  0
   17.2855   -7.1297    0.0000 N   0  0  0  0  0  0  0  0  0  0  0  0
    3.5044   -5.2255    0.0000 N   0  0  0  0  0  0  0  0  0  0  0  0
    9.5156    7.6474    0.0000 N   0  0  0  0  0  0  0  0  0  0  0  0
   11.4089   -7.0136    0.0000 N   0  0  0  0  0  0  0  0  0  0  0  0
   21.7281    5.2025    0.0000 N   0  0  0  0  0  0  0  0  0  0  0  0
   14.3368   -7.5997    0.0000 N   0  0  0  0  0  0  0  0  0  0  0  0
   24.2130    7.1319    0.0000 N   0  0  0  0  0  0  0  0  0  0  0  0
   19.7566    7.4450    0.0000 N   0  0  0  0  0  0  0  0  0  0  0  0
   17.1276    8.8607    0.0000 N   0  0  0  0  0  0  0  0  0  0  0  0
   25.2228    8.5392    0.0000 N   0  0  0  0  0  0  0  0  0  0  0  0
   25.9366    6.9611    0.0000 N   0  0  0  0  0  0  0  0  0  0  0  0
   21.4141   10.1189    0.0000 N   0  0  0  0  0  0  0  0  0  0  0  0
   15.2489   10.2495    0.0000 N   0  0  0  0  0  0  0  0  0  0  0  0
    6.0638    0.7554    0.0000 C   0  0  1  0  0  0  0  0  0  0  0  0
    5.0988    0.9940    0.0000 C   0  0  0  0  0  0  0  0  0  0  0  0
    4.5722    0.1509    0.0000 C   0  0  0  0  0  0  0  0  0  0  0  0
    5.2100   -0.6116    0.0000 C   0  0  0  0  0  0  0  0  0  0  0  0
   21.2625   -4.2162    0.0000 C   0  0  1  0  0  0  0  0  0  0  0  0
   21.8848   -4.9914    0.0000 C   0  0  0  0  0  0  0  0  0  0  0  0
   22.8150   -4.6408    0.0000 C   0  0  0  0  0  0  0  0  0  0  0  0
   22.7707   -3.6477    0.0000 C   0  0  0  0  0  0  0  0  0  0  0  0
    6.3195   -1.2246    0.0000 C   0  0  0  0  0  0  0  0  0  0  0  0
    6.6210   -2.1781    0.0000 C   0  0  2  0  0  0  0  0  0  0  0  0
    6.1132    1.7542    0.0000 C   0  0  0  0  0  0  0  0  0  0  0  0
   22.2608   -2.4872    0.0000 C   0  0  0  0  0  0  0  0  0  0  0  0
   20.6172   -4.9801    0.0000 C   0  0  0  0  0  0  0  0  0  0  0  0
    5.6871   -2.5356    0.0000 C   0  0  0  0  0  0  0  0  0  0  0  0
   22.5997   -1.5463    0.0000 C   0  0  2  0  0  0  0  0  0  0  0  0
    6.5629    3.6994    0.0000 C   0  0  1  0  0  0  0  0  0  0  0  0
    5.5297   -3.5231    0.0000 C   0  0  0  0  0  0  0  0  0  0  0  0
   23.5589   -1.8289    0.0000 C   0  0  1  0  0  0  0  0  0  0  0  0
   19.0794   -6.2533    0.0000 C   0  0  1  0  0  0  0  0  0  0  0  0
    5.6221    4.0383    0.0000 C   0  0  0  0  0  0  0  0  0  0  0  0
    4.5957   -3.8805    0.0000 C   0  0  0  0  0  0  0  0  0  0  0  0
    7.5502   -3.9452    0.0000 C   0  0  0  0  0  0  0  0  0  0  0  0
    6.9570    4.6184    0.0000 C   0  0  0  0  0  0  0  0  0  0  0  0
   19.6215   -7.0936    0.0000 C   0  0  0  0  0  0  0  0  0  0  0  0
   23.7938   -2.8010    0.0000 C   0  0  0  0  0  0  0  0  0  0  0  0
    4.6836    3.6932    0.0000 C   0  0  0  0  0  0  0  0  0  0  0  0
   22.9334    0.4221    0.0000 C   0  0  0  0  0  0  0  0  0  0  0  0
    8.1648   -4.7340    0.0000 C   0  0  2  0  0  0  0  0  0  0  0  0
   22.9235    1.4220    0.0000 C   0  0  2  0  0  0  0  0  0  0  0  0
    4.4383   -4.8681    0.0000 C   0  0  0  0  0  0  0  0  0  0  0  0
   18.2085   -6.7447    0.0000 C   0  0  0  0  0  0  0  0  0  0  0  0
    3.8581    4.2471    0.0000 C   0  0  0  0  0  0  0  0  0  0  0  0
   20.6203   -7.0442    0.0000 C   0  0  0  0  0  0  0  0  0  0  0  0
    8.0559    6.2853    0.0000 C   0  0  1  0  0  0  0  0  0  0  0  0
   23.9211    1.4911    0.0000 C   0  0  0  0  0  0  0  0  0  0  0  0
    4.4136    2.7364    0.0000 C   0  0  0  0  0  0  0  0  0  0  0  0
    3.0732    3.6275    0.0000 C   0  0  0  0  0  0  0  0  0  0  0  0
    7.4138   -5.3943    0.0000 C   0  0  0  0  0  0  0  0  0  0  0  0
    7.2920    6.9306    0.0000 C   0  0  0  0  0  0  0  0  0  0  0  0
    3.7139    5.2366    0.0000 C   0  0  0  0  0  0  0  0  0  0  0  0
   24.3601    2.3896    0.0000 C   0  0  0  0  0  0  0  0  0  0  0  0
    9.6511   -6.0670    0.0000 C   0  0  0  0  0  0  0  0  0  0  0  0
    8.7454    7.0096    0.0000 C   0  0  0  0  0  0  0  0  0  0  0  0
   22.5510    3.3834    0.0000 C   0  0  0  0  0  0  0  0  0  0  0  0
   21.1625   -7.8845    0.0000 C   0  0  0  0  0  0  0  0  0  0  0  0
    2.1441    3.9974    0.0000 C   0  0  0  0  0  0  0  0  0  0  0  0
   22.1935    4.3174    0.0000 C   0  0  2  0  0  0  0  0  0  0  0  0
   16.3235   -7.4028    0.0000 C   0  0  0  0  0  0  0  0  0  0  0  0
   10.5019   -6.5924    0.0000 C   0  0  2  0  0  0  0  0  0  0  0  0
    2.7849    5.6066    0.0000 C   0  0  0  0  0  0  0  0  0  0  0  0
    6.3078    7.1075    0.0000 C   0  0  0  0  0  0  0  0  0  0  0  0
   23.1046    4.7295    0.0000 C   0  0  0  0  0  0  0  0  0  0  0  0
    2.0000    4.9870    0.0000 C   0  0  0  0  0  0  0  0  0  0  0  0
   10.0278   -7.4729    0.0000 C   0  0  0  0  0  0  0  0  0  0  0  0
   15.3360   -7.5602    0.0000 C   0  0  0  0  0  0  0  0  0  0  0  0
   25.3577    2.4587    0.0000 C   0  0  0  0  0  0  0  0  0  0  0  0
   23.2033    5.7246    0.0000 C   0  0  0  0  0  0  0  0  0  0  0  0
   13.3399   -7.5208    0.0000 C   0  0  2  0  0  0  0  0  0  0  0  0
   10.3559    8.1895    0.0000 C   0  0  1  0  0  0  0  0  0  0  0  0
   12.3594   -7.3245    0.0000 C   0  0  0  0  0  0  0  0  0  0  0  0
   10.5533   -8.3237    0.0000 C   0  0  0  0  0  0  0  0  0  0  0  0
    5.6625    6.3435    0.0000 C   0  0  0  0  0  0  0  0  0  0  0  0
    5.9688    8.0483    0.0000 C   0  0  0  0  0  0  0  0  0  0  0  0
   21.1613    6.0263    0.0000 C   0  0  0  0  0  0  0  0  0  0  0  0
   24.1144    6.1368    0.0000 C   0  0  0  0  0  0  0  0  0  0  0  0
   20.5010    6.7773    0.0000 C   0  0  2  0  0  0  0  0  0  0  0  0
   11.2544    8.6285    0.0000 C   0  0  0  0  0  0  0  0  0  0  0  0
   13.2020   -8.5112    0.0000 C   0  0  0  0  0  0  0  0  0  0  0  0
    4.6782    6.5205    0.0000 C   0  0  0  0  0  0  0  0  0  0  0  0
    4.9847    8.2253    0.0000 C   0  0  0  0  0  0  0  0  0  0  0  0
   21.2116    7.4809    0.0000 C   0  0  0  0  0  0  0  0  0  0  0  0
    9.8645    9.0604    0.0000 C   0  0  0  0  0  0  0  0  0  0  0  0
    4.3393    7.4613    0.0000 C   0  0  0  0  0  0  0  0  0  0  0  0
   10.0791   -9.2042    0.0000 C   0  0  0  0  0  0  0  0  0  0  0  0
   20.9576    8.4481    0.0000 C   0  0  0  0  0  0  0  0  0  0  0  0
   18.9384    8.0199    0.0000 C   0  0  0  0  0  0  0  0  0  0  0  0
   25.1241    7.5440    0.0000 C   0  0  0  0  0  0  0  0  0  0  0  0
   21.6682    9.1517    0.0000 C   0  0  0  0  0  0  0  0  0  0  0  0
   18.0579    8.4940    0.0000 C   0  0  0  0  0  0  0  0  0  0  0  0
   14.1701    9.2724    0.0000 C   0  0  0  0  0  0  0  0  0  0  0  0
   15.1699    9.2526    0.0000 C   0  0  1  0  0  0  0  0  0  0  0  0
   16.1604    9.1147    0.0000 C   0  0  0  0  0  0  0  0  0  0  0  0
    6.9138    0.7638    0.0000 H   0  0  0  0  0  0  0  0  0  0  0  0
    5.3101    1.5769    0.0000 H   0  0  0  0  0  0  0  0  0  0  0  0
    4.5413    1.2654    0.0000 H   0  0  0  0  0  0  0  0  0  0  0  0
    4.0838    0.5328    0.0000 H   0  0  0  0  0  0  0  0  0  0  0  0
    4.1411   -0.2947    0.0000 H   0  0  0  0  0  0  0  0  0  0  0  0
    4.6953   -0.9572    0.0000 H   0  0  0  0  0  0  0  0  0  0  0  0
    5.4996   -1.1598    0.0000 H   0  0  0  0  0  0  0  0  0  0  0  0
   20.5818   -3.7071    0.0000 H   0  0  0  0  0  0  0  0  0  0  0  0
   21.3631   -5.3265    0.0000 H   0  0  0  0  0  0  0  0  0  0  0  0
   22.1632   -5.5454    0.0000 H   0  0  0  0  0  0  0  0  0  0  0  0
   22.9715   -5.2407    0.0000 H   0  0  0  0  0  0  0  0  0  0  0  0
   23.4280   -4.5482    0.0000 H   0  0  0  0  0  0  0  0  0  0  0  0
   23.3895   -3.6853    0.0000 H   0  0  0  0  0  0  0  0  0  0  0  0
   22.8731   -3.0362    0.0000 H   0  0  0  0  0  0  0  0  0  0  0  0
    6.3852   -2.7515    0.0000 H   0  0  0  0  0  0  0  0  0  0  0  0
    5.5694   -1.9268    0.0000 H   0  0  0  0  0  0  0  0  0  0  0  0
    5.0672   -2.5458    0.0000 H   0  0  0  0  0  0  0  0  0  0  0  0
   23.3337   -1.1177    0.0000 H   0  0  0  0  0  0  0  0  0  0  0  0
    5.6763    2.8798    0.0000 H   0  0  0  0  0  0  0  0  0  0  0  0
    6.0100    3.4190    0.0000 H   0  0  0  0  0  0  0  0  0  0  0  0
    5.6474   -4.1318    0.0000 H   0  0  0  0  0  0  0  0  0  0  0  0
    6.1496   -3.5129    0.0000 H   0  0  0  0  0  0  0  0  0  0  0  0
    6.4844   -3.3778    0.0000 H   0  0  0  0  0  0  0  0  0  0  0  0
   23.4133   -1.2263    0.0000 H   0  0  0  0  0  0  0  0  0  0  0  0
   20.2815   -6.1399    0.0000 H   0  0  0  0  0  0  0  0  0  0  0  0
   19.6891   -6.3660    0.0000 H   0  0  0  0  0  0  0  0  0  0  0  0
    5.9907    4.5368    0.0000 H   0  0  0  0  0  0  0  0  0  0  0  0
    5.2502    4.5344    0.0000 H   0  0  0  0  0  0  0  0  0  0  0  0
   23.4362   -0.6757    0.0000 H   0  0  0  0  0  0  0  0  0  0  0  0
    4.4780   -3.2718    0.0000 H   0  0  0  0  0  0  0  0  0  0  0  0
    3.9758   -3.8907    0.0000 H   0  0  0  0  0  0  0  0  0  0  0  0
   19.0501   -7.3342    0.0000 H   0  0  0  0  0  0  0  0  0  0  0  0
   19.7592   -7.6981    0.0000 H   0  0  0  0  0  0  0  0  0  0  0  0
   23.1912   -2.9466    0.0000 H   0  0  0  0  0  0  0  0  0  0  0  0
   23.9394   -3.4036    0.0000 H   0  0  0  0  0  0  0  0  0  0  0  0
   24.3965   -2.6553    0.0000 H   0  0  0  0  0  0  0  0  0  0  0  0
    8.1434   -5.3536    0.0000 H   0  0  0  0  0  0  0  0  0  0  0  0
   23.3166    1.9015    0.0000 H   0  0  0  0  0  0  0  0  0  0  0  0
    4.5560   -5.4768    0.0000 H   0  0  0  0  0  0  0  0  0  0  0  0
    5.0582   -4.8578    0.0000 H   0  0  0  0  0  0  0  0  0  0  0  0
    6.9394    5.8257    0.0000 H   0  0  0  0  0  0  0  0  0  0  0  0
   24.8780   -1.3147    0.0000 H   0  0  0  0  0  0  0  0  0  0  0  0
   21.1917   -6.8036    0.0000 H   0  0  0  0  0  0  0  0  0  0  0  0
   20.4826   -6.4397    0.0000 H   0  0  0  0  0  0  0  0  0  0  0  0
    7.4399    6.2150    0.0000 H   0  0  0  0  0  0  0  0  0  0  0  0
   23.8559    0.8745    0.0000 H   0  0  0  0  0  0  0  0  0  0  0  0
   24.5170    1.3198    0.0000 H   0  0  0  0  0  0  0  0  0  0  0  0
    4.7977    2.2498    0.0000 H   0  0  0  0  0  0  0  0  0  0  0  0
    7.0044   -4.9287    0.0000 H   0  0  0  0  0  0  0  0  0  0  0  0
    6.9481   -5.8037    0.0000 H   0  0  0  0  0  0  0  0  0  0  0  0
    7.8231   -5.8599    0.0000 H   0  0  0  0  0  0  0  0  0  0  0  0
    8.4544   -5.9062    0.0000 H   0  0  0  0  0  0  0  0  0  0  0  0
   23.4046    2.5295    0.0000 H   0  0  0  0  0  0  0  0  0  0  0  0
    3.0771    2.1796    0.0000 H   0  0  0  0  0  0  0  0  0  0  0  0
   17.4899   -7.7150    0.0000 H   0  0  0  0  0  0  0  0  0  0  0  0
    7.8300    7.2388    0.0000 H   0  0  0  0  0  0  0  0  0  0  0  0
    7.0281    6.3696    0.0000 H   0  0  0  0  0  0  0  0  0  0  0  0
    4.2006    5.6208    0.0000 H   0  0  0  0  0  0  0  0  0  0  0  0
    3.4068   -5.8378    0.0000 H   0  0  0  0  0  0  0  0  0  0  0  0
    3.0229   -4.8348    0.0000 H   0  0  0  0  0  0  0  0  0  0  0  0
   24.4253    3.0062    0.0000 H   0  0  0  0  0  0  0  0  0  0  0  0
   23.7642    2.5609    0.0000 H   0  0  0  0  0  0  0  0  0  0  0  0
    1.6575    3.6133    0.0000 H   0  0  0  0  0  0  0  0  0  0  0  0
   22.3950    4.9037    0.0000 H   0  0  0  0  0  0  0  0  0  0  0  0
   16.1250   -7.9901    0.0000 H   0  0  0  0  0  0  0  0  0  0  0  0
   16.1899   -6.7974    0.0000 H   0  0  0  0  0  0  0  0  0  0  0  0
   10.6976   -7.1808    0.0000 H   0  0  0  0  0  0  0  0  0  0  0  0
    2.6955    6.2201    0.0000 H   0  0  0  0  0  0  0  0  0  0  0  0
   23.2582    4.1288    0.0000 H   0  0  0  0  0  0  0  0  0  0  0  0
   23.7229    4.7764    0.0000 H   0  0  0  0  0  0  0  0  0  0  0  0
    1.4240    5.2164    0.0000 H   0  0  0  0  0  0  0  0  0  0  0  0
    9.5413   -7.0886    0.0000 H   0  0  0  0  0  0  0  0  0  0  0  0
    9.5649   -7.8853    0.0000 H   0  0  0  0  0  0  0  0  0  0  0  0
    9.1492    8.1475    0.0000 H   0  0  0  0  0  0  0  0  0  0  0  0
   11.1816   -7.5904    0.0000 H   0  0  0  0  0  0  0  0  0  0  0  0
   22.2588    5.5230    0.0000 H   0  0  0  0  0  0  0  0  0  0  0  0
   23.0497    6.3253    0.0000 H   0  0  0  0  0  0  0  0  0  0  0  0
   22.5851    5.6777    0.0000 H   0  0  0  0  0  0  0  0  0  0  0  0
   13.7282   -8.0041    0.0000 H   0  0  0  0  0  0  0  0  0  0  0  0
    9.7540    8.3381    0.0000 H   0  0  0  0  0  0  0  0  0  0  0  0
   14.3245   -8.2196    0.0000 H   0  0  0  0  0  0  0  0  0  0  0  0
   11.0398   -8.7080    0.0000 H   0  0  0  0  0  0  0  0  0  0  0  0
   11.0162   -7.9113    0.0000 H   0  0  0  0  0  0  0  0  0  0  0  0
    5.8726    5.7602    0.0000 H   0  0  0  0  0  0  0  0  0  0  0  0
    6.3690    8.5219    0.0000 H   0  0  0  0  0  0  0  0  0  0  0  0
   22.4974   -8.3561    0.0000 H   0  0  0  0  0  0  0  0  0  0  0  0
   24.2680    5.5361    0.0000 H   0  0  0  0  0  0  0  0  0  0  0  0
   24.7326    6.1837    0.0000 H   0  0  0  0  0  0  0  0  0  0  0  0
   20.4857    7.3971    0.0000 H   0  0  0  0  0  0  0  0  0  0  0  0
   11.3459    9.2417    0.0000 H   0  0  0  0  0  0  0  0  0  0  0  0
   11.4931    8.0563    0.0000 H   0  0  0  0  0  0  0  0  0  0  0  0
   12.5880   -8.4257    0.0000 H   0  0  0  0  0  0  0  0  0  0  0  0
   13.1166   -9.1253    0.0000 H   0  0  0  0  0  0  0  0  0  0  0  0
   13.8161   -8.5967    0.0000 H   0  0  0  0  0  0  0  0  0  0  0  0
    4.2781    6.0468    0.0000 H   0  0  0  0  0  0  0  0  0  0  0  0
    4.7746    8.8086    0.0000 H   0  0  0  0  0  0  0  0  0  0  0  0
   21.5647    6.9713    0.0000 H   0  0  0  0  0  0  0  0  0  0  0  0
   21.7748    7.7402    0.0000 H   0  0  0  0  0  0  0  0  0  0  0  0
   26.4152    3.4001    0.0000 H   0  0  0  0  0  0  0  0  0  0  0  0
   23.7093    7.4933    0.0000 H   0  0  0  0  0  0  0  0  0  0  0  0
   20.1425    7.9303    0.0000 H   0  0  0  0  0  0  0  0  0  0  0  0
   20.6045    8.9578    0.0000 H   0  0  0  0  0  0  0  0  0  0  0  0
   20.3944    8.1889    0.0000 H   0  0  0  0  0  0  0  0  0  0  0  0
   10.0683   10.4615    0.0000 H   0  0  0  0  0  0  0  0  0  0  0  0
    3.1450    8.2215    0.0000 H   0  0  0  0  0  0  0  0  0  0  0  0
   10.3106  -10.6009    0.0000 H   0  0  0  0  0  0  0  0  0  0  0  0
   18.5721    8.8404    0.0000 H   0  0  0  0  0  0  0  0  0  0  0  0
   17.7968    7.9317    0.0000 H   0  0  0  0  0  0  0  0  0  0  0  0
   14.4694    9.8153    0.0000 H   0  0  0  0  0  0  0  0  0  0  0  0
   14.1946    8.6528    0.0000 H   0  0  0  0  0  0  0  0  0  0  0  0
   14.7537    9.7121    0.0000 H   0  0  0  0  0  0  0  0  0  0  0  0
   17.3203    9.4500    0.0000 H   0  0  0  0  0  0  0  0  0  0  0  0
   25.7877    8.7947    0.0000 H   0  0  0  0  0  0  0  0  0  0  0  0
   24.7190    8.9006    0.0000 H   0  0  0  0  0  0  0  0  0  0  0  0
   26.5015    7.2166    0.0000 H   0  0  0  0  0  0  0  0  0  0  0  0
   21.8547   10.5552    0.0000 H   0  0  0  0  0  0  0  0  0  0  0  0
   20.8161   10.2824    0.0000 H   0  0  0  0  0  0  0  0  0  0  0  0
   14.7381   10.6009    0.0000 H   0  0  0  0  0  0  0  0  0  0  0  0
   15.8086   10.5161    0.0000 H   0  0  0  0  0  0  0  0  0  0  0  0
  1  2  1  0  0  0  0
  1119  1  0  0  0  0
  2132  1  0  0  0  0
  3 61  2  0  0  0  0
  4 63  2  0  0  0  0
  5 64  2  0  0  0  0
  6 65  2  0  0  0  0
 70  7  1  6  0  0  0
  7176  1  0  0  0  0
  8 74  2  0  0  0  0
  9 75  2  0  0  0  0
 10 79  2  0  0  0  0
 11 83  2  0  0  0  0
 12 97  1  0  0  0  0
 12220  1  0  0  0  0
 13 94  2  0  0  0  0
 14 95  2  0  0  0  0
 15 96  2  0  0  0  0
 16 97  2  0  0  0  0
 17108  1  0  0  0  0
 17233  1  0  0  0  0
 18107  2  0  0  0  0
 19108  2  0  0  0  0
 20112  2  0  0  0  0
 21116  2  0  0  0  0
 22124  1  0  0  0  0
 22238  1  0  0  0  0
 23125  1  0  0  0  0
 23239  1  0  0  0  0
 24126  1  0  0  0  0
 24240  1  0  0  0  0
 25124  2  0  0  0  0
 26126  2  0  0  0  0
 27128  2  0  0  0  0
 28130  2  0  0  0  0
 29134  2  0  0  0  0
 30 53  1  0  0  0  0
 30 56  1  0  0  0  0
 30 61  1  0  0  0  0
 31 57  1  0  0  0  0
 31 60  1  0  0  0  0
 31 64  1  0  0  0  0
 32 63  1  0  0  0  0
 32 68  1  0  0  0  0
 32153  1  0  0  0  0
 33 62  1  0  0  0  0
 33 74  1  0  0  0  0
 33157  1  0  0  0  0
 34 65  1  0  0  0  0
 34 71  1  0  0  0  0
 34159  1  0  0  0  0
 35 67  1  0  0  0  0
 35 79  1  0  0  0  0
 35163  1  0  0  0  0
 36 75  1  0  0  0  0
 36 86  1  0  0  0  0
 36175  1  0  0  0  0
 37 80  1  0  0  0  0
 37 94  1  0  0  0  0
 37186  1  0  0  0  0
 38 81  1  0  0  0  0
 38 96  1  0  0  0  0
 38187  1  0  0  0  0
 39 88  1  0  0  0  0
 39 89  1  0  0  0  0
 39188  1  0  0  0  0
 40 83  1  0  0  0  0
 40100  1  0  0  0  0
 40189  1  0  0  0  0
 41 82  1  0  0  0  0
 41193  1  0  0  0  0
 41194  1  0  0  0  0
 42 95  1  0  0  0  0
 42111  1  0  0  0  0
 42208  1  0  0  0  0
 43101  1  0  0  0  0
 43112  1  0  0  0  0
 43209  1  0  0  0  0
 44 99  1  0  0  0  0
 44116  1  0  0  0  0
 44210  1  0  0  0  0
 45107  1  0  0  0  0
 45110  1  0  0  0  0
 45215  1  0  0  0  0
 46117  1  0  0  0  0
 46129  1  0  0  0  0
 46234  1  0  0  0  0
 47118  1  0  0  0  0
 47128  1  0  0  0  0
 47235  1  0  0  0  0
 48131  1  0  0  0  0
 48134  1  0  0  0  0
 48246  1  0  0  0  0
 49129  1  0  0  0  0
 49247  1  0  0  0  0
 49248  1  0  0  0  0
 50129  2  0  0  0  0
 50249  1  0  0  0  0
 51130  1  0  0  0  0
 51250  1  0  0  0  0
 51251  1  0  0  0  0
133 52  1  6  0  0  0
 52252  1  0  0  0  0
 52253  1  0  0  0  0
 53 54  1  0  0  0  0
 53 63  1  0  0  0  0
 53135  1  6  0  0  0
 54 55  1  0  0  0  0
 54136  1  0  0  0  0
 54137  1  0  0  0  0
 55 56  1  0  0  0  0
 55138  1  0  0  0  0
 55139  1  0  0  0  0
 56140  1  0  0  0  0
 56141  1  0  0  0  0
 57 58  1  0  0  0  0
 57 65  1  0  0  0  0
 57142  1  6  0  0  0
 58 59  1  0  0  0  0
 58143  1  0  0  0  0
 58144  1  0  0  0  0
 59 60  1  0  0  0  0
 59145  1  0  0  0  0
 59146  1  0  0  0  0
 60147  1  0  0  0  0
 60148  1  0  0  0  0
 61 62  1  0  0  0  0
 62 66  1  1  0  0  0
 62149  1  0  0  0  0
 64 67  1  0  0  0  0
 66 69  1  0  0  0  0
 66150  1  0  0  0  0
 66151  1  0  0  0  0
 67 70  1  0  0  0  0
 67152  1  6  0  0  0
 68 72  1  1  0  0  0
 68 75  1  0  0  0  0
 68154  1  0  0  0  0
 69 73  1  0  0  0  0
 69155  1  0  0  0  0
 69156  1  0  0  0  0
 70 77  1  0  0  0  0
 70158  1  0  0  0  0
 71 76  1  1  0  0  0
 71 83  1  0  0  0  0
 71160  1  0  0  0  0
 72 78  1  0  0  0  0
 72161  1  0  0  0  0
 72162  1  0  0  0  0
 73 82  1  0  0  0  0
 73164  1  0  0  0  0
 73165  1  0  0  0  0
 74 80  1  0  0  0  0
 76 85  1  0  0  0  0
 76166  1  0  0  0  0
 76167  1  0  0  0  0
 77168  1  0  0  0  0
 77169  1  0  0  0  0
 77170  1  0  0  0  0
 78 84  1  0  0  0  0
 78 88  2  0  0  0  0
 79 81  1  0  0  0  0
 80 90  1  1  0  0  0
 80171  1  0  0  0  0
 81 87  1  1  0  0  0
 81172  1  0  0  0  0
 82173  1  0  0  0  0
 82174  1  0  0  0  0
 84 89  1  0  0  0  0
 84 92  2  0  0  0  0
 85 97  1  0  0  0  0
 85177  1  0  0  0  0
 85178  1  0  0  0  0
 86 91  1  1  0  0  0
 86 95  1  0  0  0  0
 86179  1  0  0  0  0
 87 93  1  0  0  0  0
 87180  1  0  0  0  0
 87181  1  0  0  0  0
 88182  1  0  0  0  0
 89 98  2  0  0  0  0
 90183  1  0  0  0  0
 90184  1  0  0  0  0
 90185  1  0  0  0  0
 91103  1  0  0  0  0
 91190  1  0  0  0  0
 91191  1  0  0  0  0
 92102  1  0  0  0  0
 92192  1  0  0  0  0
 93108  1  0  0  0  0
 93195  1  0  0  0  0
 93196  1  0  0  0  0
 94101  1  0  0  0  0
 96 99  1  0  0  0  0
 98105  1  0  0  0  0
 98197  1  0  0  0  0
 99104  1  1  0  0  0
 99198  1  0  0  0  0
100107  1  0  0  0  0
100199  1  0  0  0  0
100200  1  0  0  0  0
101106  1  1  0  0  0
101201  1  0  0  0  0
102105  2  0  0  0  0
102202  1  0  0  0  0
103114  2  0  0  0  0
103115  1  0  0  0  0
104109  1  0  0  0  0
104203  1  0  0  0  0
104204  1  0  0  0  0
105205  1  0  0  0  0
106113  1  0  0  0  0
106206  1  0  0  0  0
106207  1  0  0  0  0
109117  1  0  0  0  0
109211  1  0  0  0  0
109212  1  0  0  0  0
110112  1  0  0  0  0
110120  1  1  0  0  0
110213  1  0  0  0  0
111119  1  0  0  0  0
111124  1  6  0  0  0
111214  1  0  0  0  0
113126  1  0  0  0  0
113216  1  0  0  0  0
113217  1  0  0  0  0
114121  1  0  0  0  0
114218  1  0  0  0  0
115122  2  0  0  0  0
115219  1  0  0  0  0
116118  1  0  0  0  0
117221  1  0  0  0  0
117222  1  0  0  0  0
118123  1  1  0  0  0
118223  1  0  0  0  0
119224  1  0  0  0  0
119225  1  0  0  0  0
120226  1  0  0  0  0
120227  1  0  0  0  0
120228  1  0  0  0  0
121125  2  0  0  0  0
121229  1  0  0  0  0
122125  1  0  0  0  0
122230  1  0  0  0  0
123127  1  0  0  0  0
123231  1  0  0  0  0
123232  1  0  0  0  0
127130  1  0  0  0  0
127236  1  0  0  0  0
127237  1  0  0  0  0
128131  1  0  0  0  0
131241  1  0  0  0  0
131242  1  0  0  0  0
132133  1  0  0  0  0
132243  1  0  0  0  0
132244  1  0  0  0  0
133134  1  0  0  0  0
133245  1  0  0  0  0
M  END
> <PUBCHEM_COMPOUND_CID>
91864495

> <PUBCHEM_COMPOUND_CANONICALIZED>
1

> <PUBCHEM_CACTVS_COMPLEXITY>
4170

> <PUBCHEM_CACTVS_HBOND_ACCEPTOR>
32

> <PUBCHEM_CACTVS_HBOND_DONOR>
27

> <PUBCHEM_CACTVS_ROTATABLE_BOND>
27

> <PUBCHEM_CACTVS_SUBSKEYS>
AAADcfB//gBgAAAAAAAAAAAAAAAAAWLFgAAwYAAAAAAAAFgB9AAAHgQQCAAADDzl3ga/zvPJkgCoAzX3fACCgCCxIiAJ2aG+bJiKdvbCmbOUcAhm9hPY2Ae83+KOoAAAAAACAABAAAAAAAQAAAAAAAAAAA==

> <PUBCHEM_IUPAC_OPENEYE_NAME>
(3S,6S,9S,12S,18S,21S,27S,30S,33S,36S,42R,47R,50S,53S,56S)-42-amino-3-(4-aminobutyl)-36-(3-amino-3-oxo-propyl)-9,18,30-tris(2-carboxyethyl)-33-(3-guanidinopropyl)-27-[(1R)-1-hydroxyethyl]-50-[(4-hydroxyphenyl)methyl]-53-(1H-indol-3-ylmethyl)-6,12-dimethyl-2,5,8,11,14,17,20,26,29,32,35,38,41,49,52,55-hexadecaoxo-44,45-dithia-1,4,7,10,13,16,19,25,28,31,34,37,40,48,51,54-hexadecazatricyclo[54.3.0.021,25]nonapentacontane-47-carboxylic acid

> <PUBCHEM_IUPAC_CAS_NAME>
(3S,6S,9S,12S,18S,21S,27S,30S,33S,36S,42R,47R,50S,53S,56S)-42-amino-3-(4-aminobutyl)-36-(3-amino-3-oxopropyl)-33-(3-carbamimidamidopropyl)-9,18,30-tris(2-carboxyethyl)-27-[(1R)-1-hydroxyethyl]-50-[(4-hydroxyphenyl)methyl]-53-(1H-indol-3-ylmethyl)-6,12-dimethyl-2,5,8,11,14,17,20,26,29,32,35,38,41,49,52,55-hexadecaoxo-44,45-dithia-1,4,7,10,13,16,19,25,28,31,34,37,40,48,51,54-hexadecazatricyclo[54.3.0.021,25]nonapentacontane-47-carboxylic acid

> <PUBCHEM_IUPAC_NAME_MARKUP>
(3<I>S</I>,6<I>S</I>,9<I>S</I>,12<I>S</I>,18<I>S</I>,21<I>S</I>,27<I>S</I>,30<I>S</I>,33<I>S</I>,36<I>S</I>,42<I>R</I>,47<I>R</I>,50<I>S</I>,53<I>S</I>,56<I>S</I>)-42-amino-3-(4-aminobutyl)-36-(3-amino-3-oxopropyl)-33-(3-carbamimidamidopropyl)-9,18,30-tris(2-carboxyethyl)-27-[(1<I>R</I>)-1-hydroxyethyl]-50-[(4-hydroxyphenyl)methyl]-53-(1<I>H</I>-indol-3-ylmethyl)-6,12-dimethyl-2,5,8,11,14,17,20,26,29,32,35,38,41,49,52,55-hexadecaoxo-44,45-dithia-1,4,7,10,13,16,19,25,28,31,34,37,40,48,51,54-hexadecazatricyclo[54.3.0.0<SUP>21,25</SUP>]nonapentacontane-47-carboxylic acid

> <PUBCHEM_IUPAC_NAME>
(3S,6S,9S,12S,18S,21S,27S,30S,33S,36S,42R,47R,50S,53S,56S)-42-amino-3-(4-aminobutyl)-36-(3-amino-3-oxopropyl)-33-(3-carbamimidamidopropyl)-9,18,30-tris(2-carboxyethyl)-27-[(1R)-1-hydroxyethyl]-50-[(4-hydroxyphenyl)methyl]-53-(1H-indol-3-ylmethyl)-6,12-dimethyl-2,5,8,11,14,17,20,26,29,32,35,38,41,49,52,55-hexadecaoxo-44,45-dithia-1,4,7,10,13,16,19,25,28,31,34,37,40,48,51,54-hexadecazatricyclo[54.3.0.021,25]nonapentacontane-47-carboxylic acid

> <PUBCHEM_IUPAC_SYSTEMATIC_NAME>
(3S,6S,9S,12S,18S,21S,27S,30S,33S,36S,42R,47R,50S,53S,56S)-42-azanyl-3-(4-azanylbutyl)-36-(3-azanyl-3-oxidanylidene-propyl)-33-(3-carbamimidamidopropyl)-9,18,30-tris(3-hydroxy-3-oxopropyl)-50-[(4-hydroxyphenyl)methyl]-53-(1H-indol-3-ylmethyl)-6,12-dimethyl-27-[(1R)-1-oxidanylethyl]-2,5,8,11,14,17,20,26,29,32,35,38,41,49,52,55-hexadecakis(oxidanylidene)-44,45-dithia-1,4,7,10,13,16,19,25,28,31,34,37,40,48,51,54-hexadecazatricyclo[54.3.0.021,25]nonapentacontane-47-carboxylic acid

> <PUBCHEM_IUPAC_TRADITIONAL_NAME>
(3S,6S,9S,12S,18S,21S,27S,30S,33S,36S,42R,47R,50S,53S,56S)-42-amino-3-(4-aminobutyl)-36-(3-amino-3-keto-propyl)-9,18,30-tris(2-carboxyethyl)-33-(3-guanidinopropyl)-50-(4-hydroxybenzyl)-27-[(1R)-1-hydroxyethyl]-53-(1H-indol-3-ylmethyl)-2,5,8,11,14,17,20,26,29,32,35,38,41,49,52,55-hexadecaketo-6,12-dimethyl-44,45-dithia-1,4,7,10,13,16,19,25,28,31,34,37,40,48,51,54-hexadecazatricyclo[54.3.0.021,25]nonapentacontane-47-carboxylic acid

> <PUBCHEM_IUPAC_INCHI>
InChI=1S/C82H119N23O27S2/c1-40-67(117)95-52(23-27-64(113)114)71(121)93-41(2)68(118)99-54(13-6-7-29-83)79(129)104-31-9-15-58(104)78(128)101-56(34-44-35-89-48-12-5-4-11-46(44)48)76(126)100-55(33-43-17-19-45(107)20-18-43)75(125)102-57(81(131)132)39-134-133-38-47(84)69(119)90-37-62(110)94-51(21-25-60(85)108)73(123)96-49(14-8-30-88-82(86)87)72(122)97-53(24-28-65(115)116)74(124)103-66(42(3)106)80(130)105-32-10-16-59(105)77(127)98-50(22-26-63(111)112)70(120)91-36-61(109)92-40/h4-5,11-12,17-20,35,40-42,47,49-59,66,89,106-107H,6-10,13-16,21-34,36-39,83-84H2,1-3H3,(H2,85,108)(H,90,119)(H,91,120)(H,92,109)(H,93,121)(H,94,110)(H,95,117)(H,96,123)(H,97,122)(H,98,127)(H,99,118)(H,100,126)(H,101,128)(H,102,125)(H,103,124)(H,111,112)(H,113,114)(H,115,116)(H,131,132)(H4,86,87,88)/t40-,41-,42+,47-,49-,50-,51-,52-,53-,54-,55-,56-,57-,58-,59-,66-/m0/s1

> <PUBCHEM_IUPAC_INCHIKEY>
LKVFMOMQYXIFRK-KSVAIKAXSA-N

> <PUBCHEM_XLOGP3_AA>
-10.7

> <PUBCHEM_EXACT_MASS>
1921.808718

> <PUBCHEM_MOLECULAR_FORMULA>
C82H119N23O27S2

> <PUBCHEM_MOLECULAR_WEIGHT>
1923.1

> <PUBCHEM_OPENEYE_CAN_SMILES>
CC1C(=O)NC(C(=O)NC(C(=O)NC(C(=O)N2CCCC2C(=O)NC(C(=O)NC(C(=O)NC(CSSCC(C(=O)NCC(=O)NC(C(=O)NC(C(=O)NC(C(=O)NC(C(=O)N3CCCC3C(=O)NC(C(=O)NCC(=O)N1)CCC(=O)O)C(C)O)CCC(=O)O)CCCNC(=N)N)CCC(=O)N)N)C(=O)O)CC4=CC=C(C=C4)O)CC5=CNC6=CC=CC=C65)CCCCN)C)CCC(=O)O

> <PUBCHEM_OPENEYE_ISO_SMILES>
C[C@H]1C(=O)N[C@H](C(=O)N[C@H](C(=O)N[C@H](C(=O)N2CCC[C@H]2C(=O)N[C@H](C(=O)N[C@H](C(=O)N[C@@H](CSSC[C@@H](C(=O)NCC(=O)N[C@H](C(=O)N[C@H](C(=O)N[C@H](C(=O)N[C@H](C(=O)N3CCC[C@H]3C(=O)N[C@H](C(=O)NCC(=O)N1)CCC(=O)O)[C@@H](C)O)CCC(=O)O)CCCNC(=N)N)CCC(=O)N)N)C(=O)O)CC4=CC=C(C=C4)O)CC5=CNC6=CC=CC=C65)CCCCN)C)CCC(=O)O

> <PUBCHEM_CACTVS_TPSA>
861

> <PUBCHEM_MONOISOTOPIC_WEIGHT>
1921.808718

> <PUBCHEM_TOTAL_CHARGE>
0

> <PUBCHEM_HEAVY_ATOM_COUNT>
134

> <PUBCHEM_ATOM_DEF_STEREO_COUNT>
16

> <PUBCHEM_ATOM_UDEF_STEREO_COUNT>
0

> <PUBCHEM_BOND_DEF_STEREO_COUNT>
0

> <PUBCHEM_BOND_UDEF_STEREO_COUNT>
0

> <PUBCHEM_ISOTOPIC_ATOM_COUNT>
0

> <PUBCHEM_COMPONENT_COUNT>
1

> <PUBCHEM_CACTVS_TAUTO_COUNT>
-1

> <PUBCHEM_COORDINATE_TYPE>
1
5
255

> <PUBCHEM_BONDANNOTATIONS>
101  106  5
102  105  8
103  114  8
103  115  8
110  120  5
111  124  6
114  121  8
115  122  8
118  123  5
121  125  8
122  125  8
39  88  8
39  89  8
133  52  6
53  135  6
57  142  6
62  66  5
67  152  6
68  72  5
70  7  6
71  76  5
78  84  8
78  88  8
80  90  5
81  87  5
84  89  8
84  92  8
86  91  5
89  98  8
92  102  8
98  105  8
99  104  5

$$$$
