9234227
  -OEChem-05242006122D

 34 36  0     1  0  0  0  0  0999 V2000
    4.6783    0.0057    0.0000 S   0  0  0  0  0  0  0  0  0  0  0  0
    7.7619    1.7990    0.0000 O   0  0  0  0  0  0  0  0  0  0  0  0
    7.7619    0.0670    0.0000 N   0  0  0  0  0  0  0  0  0  0  0  0
    4.6783   -1.6038    0.0000 N   0  0  0  0  0  0  0  0  0  0  0  0
    6.2619   -0.7990    0.0000 C   0  0  2  0  0  0  0  0  0  0  0  0
    6.7619   -1.6651    0.0000 C   0  0  0  0  0  0  0  0  0  0  0  0
    6.7619    0.0670    0.0000 C   0  0  0  0  0  0  0  0  0  0  0  0
    7.7619   -1.6651    0.0000 C   0  0  0  0  0  0  0  0  0  0  0  0
    8.2619   -0.7990    0.0000 C   0  0  0  0  0  0  0  0  0  0  0  0
    5.2619   -0.7990    0.0000 C   0  0  0  0  0  0  0  0  0  0  0  0
    8.2619    0.9330    0.0000 C   0  0  0  0  0  0  0  0  0  0  0  0
    3.7320   -0.2990    0.0000 C   0  0  0  0  0  0  0  0  0  0  0  0
    3.7320   -1.2990    0.0000 C   0  0  0  0  0  0  0  0  0  0  0  0
    9.2619    0.9330    0.0000 C   0  0  0  0  0  0  0  0  0  0  0  0
    2.8660    0.2010    0.0000 C   0  0  0  0  0  0  0  0  0  0  0  0
    2.8660   -1.7990    0.0000 C   0  0  0  0  0  0  0  0  0  0  0  0
    2.0000   -0.2990    0.0000 C   0  0  0  0  0  0  0  0  0  0  0  0
    2.0000   -1.2990    0.0000 C   0  0  0  0  0  0  0  0  0  0  0  0
    5.8369   -1.5352    0.0000 H   0  0  0  0  0  0  0  0  0  0  0  0
    6.1793   -1.8771    0.0000 H   0  0  0  0  0  0  0  0  0  0  0  0
    6.8695   -2.2756    0.0000 H   0  0  0  0  0  0  0  0  0  0  0  0
    6.8695    0.6776    0.0000 H   0  0  0  0  0  0  0  0  0  0  0  0
    6.1793    0.2790    0.0000 H   0  0  0  0  0  0  0  0  0  0  0  0
    7.6542   -2.2756    0.0000 H   0  0  0  0  0  0  0  0  0  0  0  0
    8.3445   -1.8771    0.0000 H   0  0  0  0  0  0  0  0  0  0  0  0
    8.7368   -1.1976    0.0000 H   0  0  0  0  0  0  0  0  0  0  0  0
    8.7368   -0.4005    0.0000 H   0  0  0  0  0  0  0  0  0  0  0  0
    9.2619    0.3130    0.0000 H   0  0  0  0  0  0  0  0  0  0  0  0
    9.8819    0.9330    0.0000 H   0  0  0  0  0  0  0  0  0  0  0  0
    9.2619    1.5530    0.0000 H   0  0  0  0  0  0  0  0  0  0  0  0
    2.8660    0.8210    0.0000 H   0  0  0  0  0  0  0  0  0  0  0  0
    2.8660   -2.4190    0.0000 H   0  0  0  0  0  0  0  0  0  0  0  0
    1.4631    0.0110    0.0000 H   0  0  0  0  0  0  0  0  0  0  0  0
    1.4631   -1.6090    0.0000 H   0  0  0  0  0  0  0  0  0  0  0  0
  1 10  1  0  0  0  0
  1 12  1  0  0  0  0
  2 11  2  0  0  0  0
  3  7  1  0  0  0  0
  3  9  1  0  0  0  0
  3 11  1  0  0  0  0
  4 10  2  0  0  0  0
  4 13  1  0  0  0  0
  5  6  1  0  0  0  0
  5  7  1  0  0  0  0
  5 10  1  0  0  0  0
  5 19  1  6  0  0  0
  6  8  1  0  0  0  0
  6 20  1  0  0  0  0
  6 21  1  0  0  0  0
  7 22  1  0  0  0  0
  7 23  1  0  0  0  0
  8  9  1  0  0  0  0
  8 24  1  0  0  0  0
  8 25  1  0  0  0  0
  9 26  1  0  0  0  0
  9 27  1  0  0  0  0
 11 14  1  0  0  0  0
 12 13  1  0  0  0  0
 12 15  2  0  0  0  0
 13 16  2  0  0  0  0
 14 28  1  0  0  0  0
 14 29  1  0  0  0  0
 14 30  1  0  0  0  0
 15 17  1  0  0  0  0
 15 31  1  0  0  0  0
 16 18  1  0  0  0  0
 16 32  1  0  0  0  0
 17 18  2  0  0  0  0
 17 33  1  0  0  0  0
 18 34  1  0  0  0  0
M  END
> <PUBCHEM_COMPOUND_CID>
9234227

> <PUBCHEM_COMPOUND_CANONICALIZED>
1

> <PUBCHEM_CACTVS_COMPLEXITY>
323

> <PUBCHEM_CACTVS_HBOND_ACCEPTOR>
3

> <PUBCHEM_CACTVS_HBOND_DONOR>
0

> <PUBCHEM_CACTVS_ROTATABLE_BOND>
1

> <PUBCHEM_CACTVS_SUBSKEYS>
AAADceBzIABAAAAAAAAAAAAAAAAAAWAAAAA8QAAAAAAAAFgB8AAAHgQAAAAADQjB1gQywbMIEAisASVyVACD8KBhCjhImDw4ZJgIIKLg0ZGEIAhghgDoyAcQAAAMAAAAAAAAAQAAAAAAAAACAAAAAAAAAA==

> <PUBCHEM_IUPAC_OPENEYE_NAME>
1-[(3R)-3-(1,3-benzothiazol-2-yl)-1-piperidyl]ethanone

> <PUBCHEM_IUPAC_CAS_NAME>
1-[(3R)-3-(1,3-benzothiazol-2-yl)-1-piperidinyl]ethanone

> <PUBCHEM_IUPAC_NAME_MARKUP>
1-[(3<I>R</I>)-3-(1,3-benzothiazol-2-yl)piperidin-1-yl]ethanone

> <PUBCHEM_IUPAC_NAME>
1-[(3R)-3-(1,3-benzothiazol-2-yl)piperidin-1-yl]ethanone

> <PUBCHEM_IUPAC_SYSTEMATIC_NAME>
1-[(3R)-3-(1,3-benzothiazol-2-yl)piperidin-1-yl]ethanone

> <PUBCHEM_IUPAC_TRADITIONAL_NAME>
1-[(3R)-3-(1,3-benzothiazol-2-yl)piperidino]ethanone

> <PUBCHEM_IUPAC_INCHI>
InChI=1S/C14H16N2OS/c1-10(17)16-8-4-5-11(9-16)14-15-12-6-2-3-7-13(12)18-14/h2-3,6-7,11H,4-5,8-9H2,1H3/t11-/m1/s1

> <PUBCHEM_IUPAC_INCHIKEY>
VRHLKEQAZUIMQF-LLVKDONJSA-N

> <PUBCHEM_XLOGP3_AA>
2.5

> <PUBCHEM_EXACT_MASS>
260.098334

> <PUBCHEM_MOLECULAR_FORMULA>
C14H16N2OS

> <PUBCHEM_MOLECULAR_WEIGHT>
260.36

> <PUBCHEM_OPENEYE_CAN_SMILES>
CC(=O)N1CCCC(C1)C2=NC3=CC=CC=C3S2

> <PUBCHEM_OPENEYE_ISO_SMILES>
CC(=O)N1CCC[C@H](C1)C2=NC3=CC=CC=C3S2

> <PUBCHEM_CACTVS_TPSA>
61.4

> <PUBCHEM_MONOISOTOPIC_WEIGHT>
260.098334

> <PUBCHEM_TOTAL_CHARGE>
0

> <PUBCHEM_HEAVY_ATOM_COUNT>
18

> <PUBCHEM_ATOM_DEF_STEREO_COUNT>
1

> <PUBCHEM_ATOM_UDEF_STEREO_COUNT>
0

> <PUBCHEM_BOND_DEF_STEREO_COUNT>
0

> <PUBCHEM_BOND_UDEF_STEREO_COUNT>
0

> <PUBCHEM_ISOTOPIC_ATOM_COUNT>
0

> <PUBCHEM_COMPONENT_COUNT>
1

> <PUBCHEM_CACTVS_TAUTO_COUNT>
-1

> <PUBCHEM_COORDINATE_TYPE>
1
5
255

> <PUBCHEM_BONDANNOTATIONS>
1  10  8
1  12  8
12  13  8
12  15  8
13  16  8
15  17  8
16  18  8
17  18  8
4  10  8
4  13  8
5  19  6

$$$$
