9570985
  -OEChem-05242006132D

 54 55  0     1  0  0  0  0  0999 V2000
    8.9282   -0.8240    0.0000 S   0  0  0  0  0  0  0  0  0  0  0  0
    6.3301    0.6760    0.0000 S   0  0  0  0  0  0  0  0  0  0  0  0
   15.7624   -1.3196    0.0000 S   0  0  0  0  0  0  0  0  0  0  0  0
    8.0622    3.6760    0.0000 Na  0  3  0  0  0  0  0  0  0  0  0  0
    2.0000    2.1760    0.0000 Na  0  3  0  0  0  0  0  0  0  0  0  0
   11.5082    1.3887    0.0000 O   0  0  0  0  0  0  0  0  0  0  0  0
    8.0622    2.6760    0.0000 O   0  5  0  0  0  0  0  0  0  0  0  0
    9.7942    2.6760    0.0000 O   0  0  0  0  0  0  0  0  0  0  0  0
   12.7354    0.1855    0.0000 O   0  0  0  0  0  0  0  0  0  0  0  0
   11.9530   -2.7106    0.0000 O   0  0  0  0  0  0  0  0  0  0  0  0
    4.5981    3.6760    0.0000 O   0  0  0  0  0  0  0  0  0  0  0  0
    2.8660    2.6760    0.0000 O   0  5  0  0  0  0  0  0  0  0  0  0
    9.7942    0.6760    0.0000 N   0  0  0  0  0  0  0  0  0  0  0  0
   11.5082   -1.0367    0.0000 N   0  0  0  0  0  0  0  0  0  0  0  0
   12.9195   -2.4538    0.0000 N   0  0  0  0  0  0  0  0  0  0  0  0
    4.5981    0.6760    0.0000 N   0  0  0  0  0  0  0  0  0  0  0  0
    5.4641    2.1760    0.0000 N   0  0  0  0  0  0  0  0  0  0  0  0
   14.5070   -0.2987    0.0000 N   0  0  0  0  0  0  0  0  0  0  0  0
    3.7320    1.1760    0.0000 N   0  0  0  0  0  0  0  0  0  0  0  0
   16.1364    0.4227    0.0000 N   0  0  0  0  0  0  0  0  0  0  0  0
    9.7942   -0.3240    0.0000 C   0  0  1  0  0  0  0  0  0  0  0  0
   10.8025   -0.3281    0.0000 C   0  0  1  0  0  0  0  0  0  0  0  0
   10.8025    0.6802    0.0000 C   0  0  0  0  0  0  0  0  0  0  0  0
    8.9282    1.1760    0.0000 C   0  0  0  0  0  0  0  0  0  0  0  0
    8.0622    0.6760    0.0000 C   0  0  0  0  0  0  0  0  0  0  0  0
    8.0622   -0.3240    0.0000 C   0  0  0  0  0  0  0  0  0  0  0  0
    7.1962    1.1760    0.0000 C   0  0  0  0  0  0  0  0  0  0  0  0
    8.9282    2.1760    0.0000 C   0  0  0  0  0  0  0  0  0  0  0  0
   12.4746   -0.7798    0.0000 C   0  0  0  0  0  0  0  0  0  0  0  0
   13.1803   -1.4884    0.0000 C   0  0  0  0  0  0  0  0  0  0  0  0
    5.4641    1.1760    0.0000 C   0  0  0  0  0  0  0  0  0  0  0  0
   14.1467   -1.2316    0.0000 C   0  0  0  0  0  0  0  0  0  0  0  0
   14.9226   -1.8625    0.0000 C   0  0  0  0  0  0  0  0  0  0  0  0
    4.5981   -0.3240    0.0000 C   0  0  0  0  0  0  0  0  0  0  0  0
   15.5055   -0.3531    0.0000 C   0  0  0  0  0  0  0  0  0  0  0  0
    4.5981    2.6760    0.0000 C   0  0  0  0  0  0  0  0  0  0  0  0
    3.7320    2.1760    0.0000 C   0  0  0  0  0  0  0  0  0  0  0  0
   11.6922   -3.6760    0.0000 C   0  0  0  0  0  0  0  0  0  0  0  0
   10.0125   -1.1455    0.0000 H   0  0  0  0  0  0  0  0  0  0  0  0
   10.5635   -0.9002    0.0000 H   0  0  0  0  0  0  0  0  0  0  0  0
    7.4516   -0.2163    0.0000 H   0  0  0  0  0  0  0  0  0  0  0  0
    7.8501   -0.9066    0.0000 H   0  0  0  0  0  0  0  0  0  0  0  0
   11.3465   -1.6352    0.0000 H   0  0  0  0  0  0  0  0  0  0  0  0
    7.5947    1.6510    0.0000 H   0  0  0  0  0  0  0  0  0  0  0  0
    6.7976    1.6510    0.0000 H   0  0  0  0  0  0  0  0  0  0  0  0
   14.8889   -2.4816    0.0000 H   0  0  0  0  0  0  0  0  0  0  0  0
    3.9781   -0.3240    0.0000 H   0  0  0  0  0  0  0  0  0  0  0  0
    4.5981   -0.9440    0.0000 H   0  0  0  0  0  0  0  0  0  0  0  0
    5.2181   -0.3240    0.0000 H   0  0  0  0  0  0  0  0  0  0  0  0
   11.0937   -3.5143    0.0000 H   0  0  0  0  0  0  0  0  0  0  0  0
   11.5305   -4.2746    0.0000 H   0  0  0  0  0  0  0  0  0  0  0  0
   12.2907   -3.8377    0.0000 H   0  0  0  0  0  0  0  0  0  0  0  0
   16.7486    0.3245    0.0000 H   0  0  0  0  0  0  0  0  0  0  0  0
   15.9154    1.0020    0.0000 H   0  0  0  0  0  0  0  0  0  0  0  0
  1 21  1  0  0  0  0
  1 26  1  0  0  0  0
  2 27  1  0  0  0  0
  2 31  1  0  0  0  0
  3 33  1  0  0  0  0
  3 35  1  0  0  0  0
  6 23  2  0  0  0  0
  7 28  1  0  0  0  0
  8 28  2  0  0  0  0
  9 29  2  0  0  0  0
 10 15  1  0  0  0  0
 10 38  1  0  0  0  0
 11 36  2  0  0  0  0
 12 37  1  0  0  0  0
 13 21  1  0  0  0  0
 13 23  1  0  0  0  0
 13 24  1  0  0  0  0
 22 14  1  1  0  0  0
 14 29  1  0  0  0  0
 14 43  1  0  0  0  0
 15 30  2  0  0  0  0
 16 19  1  0  0  0  0
 16 31  1  0  0  0  0
 16 34  1  0  0  0  0
 17 31  2  0  0  0  0
 17 36  1  0  0  0  0
 18 32  1  0  0  0  0
 18 35  2  0  0  0  0
 19 37  2  0  0  0  0
 20 35  1  0  0  0  0
 20 53  1  0  0  0  0
 20 54  1  0  0  0  0
 21 22  1  0  0  0  0
 21 39  1  6  0  0  0
 22 23  1  0  0  0  0
 22 40  1  0  0  0  0
 24 25  2  0  0  0  0
 24 28  1  0  0  0  0
 25 26  1  0  0  0  0
 25 27  1  0  0  0  0
 26 41  1  0  0  0  0
 26 42  1  0  0  0  0
 27 44  1  0  0  0  0
 27 45  1  0  0  0  0
 29 30  1  0  0  0  0
 30 32  1  0  0  0  0
 32 33  2  0  0  0  0
 33 46  1  0  0  0  0
 34 47  1  0  0  0  0
 34 48  1  0  0  0  0
 34 49  1  0  0  0  0
 36 37  1  0  0  0  0
 38 50  1  0  0  0  0
 38 51  1  0  0  0  0
 38 52  1  0  0  0  0
M  CHG  4   4   1   5   1   7  -1  12  -1
M  END
> <PUBCHEM_COMPOUND_CID>
9570985

> <PUBCHEM_COMPOUND_CANONICALIZED>
1

> <PUBCHEM_CACTVS_COMPLEXITY>
1120

> <PUBCHEM_CACTVS_HBOND_ACCEPTOR>
14

> <PUBCHEM_CACTVS_HBOND_DONOR>
2

> <PUBCHEM_CACTVS_ROTATABLE_BOND>
7

> <PUBCHEM_CACTVS_SUBSKEYS>
AAADceB7+DBgAAAAAAAAAAAAAABYAWAAAAAgQAAAAAAQAAABgAAAHgQcAAAADCjF1gajmRPYEAisAwXyfAIQ8KlhCjkBCJX4IFiCZJggxCEUEAAAHgKwASAAAAAAAAAAAAAAAAAAAAAAAAAAAAAAAAAAAA==

> <PUBCHEM_IUPAC_OPENEYE_NAME>
disodium;(6R,7R)-7-[[(2Z)-2-(2-aminothiazol-4-yl)-2-methoxyimino-acetyl]amino]-3-[(2-methyl-6-oxido-5-oxo-1,2,4-triazin-3-yl)sulfanylmethyl]-8-oxo-5-thia-1-azabicyclo[4.2.0]oct-2-ene-2-carboxylate

> <PUBCHEM_IUPAC_CAS_NAME>
disodium;(6R,7R)-7-[[(2Z)-2-(2-amino-4-thiazolyl)-2-methoxyimino-1-oxoethyl]amino]-3-[[(2-methyl-6-oxido-5-oxo-1,2,4-triazin-3-yl)thio]methyl]-8-oxo-5-thia-1-azabicyclo[4.2.0]oct-2-ene-2-carboxylate

> <PUBCHEM_IUPAC_NAME_MARKUP>
disodium;(6<I>R</I>,7<I>R</I>)-7-[[(2<I>Z</I>)-2-(2-amino-1,3-thiazol-4-yl)-2-methoxyiminoacetyl]amino]-3-[(2-methyl-6-oxido-5-oxo-1,2,4-triazin-3-yl)sulfanylmethyl]-8-oxo-5-thia-1-azabicyclo[4.2.0]oct-2-ene-2-carboxylate

> <PUBCHEM_IUPAC_NAME>
disodium;(6R,7R)-7-[[(2Z)-2-(2-amino-1,3-thiazol-4-yl)-2-methoxyiminoacetyl]amino]-3-[(2-methyl-6-oxido-5-oxo-1,2,4-triazin-3-yl)sulfanylmethyl]-8-oxo-5-thia-1-azabicyclo[4.2.0]oct-2-ene-2-carboxylate

> <PUBCHEM_IUPAC_SYSTEMATIC_NAME>
disodium;(6R,7R)-7-[[(2Z)-2-(2-azanyl-1,3-thiazol-4-yl)-2-methoxyimino-ethanoyl]amino]-3-[(2-methyl-6-oxidanidyl-5-oxidanylidene-1,2,4-triazin-3-yl)sulfanylmethyl]-8-oxidanylidene-5-thia-1-azabicyclo[4.2.0]oct-2-ene-2-carboxylate

> <PUBCHEM_IUPAC_TRADITIONAL_NAME>
disodium;(6R,7R)-7-[[(2Z)-2-(2-aminothiazol-4-yl)-2-methyloximino-acetyl]amino]-8-keto-3-[[(5-keto-2-methyl-6-oxido-1,2,4-triazin-3-yl)thio]methyl]-5-thia-1-azabicyclo[4.2.0]oct-2-ene-2-carboxylate

> <PUBCHEM_IUPAC_INCHI>
InChI=1S/C18H18N8O7S3.2Na/c1-25-18(22-12(28)13(29)23-25)36-4-6-3-34-15-9(14(30)26(15)10(6)16(31)32)21-11(27)8(24-33-2)7-5-35-17(19)20-7;;/h5,9,15H,3-4H2,1-2H3,(H2,19,20)(H,21,27)(H,23,29)(H,31,32);;/q;2*+1/p-2/b24-8-;;/t9-,15-;;/m1../s1

> <PUBCHEM_IUPAC_INCHIKEY>
FDRNWTJTHBSPMW-BBJOQENWSA-L

> <PUBCHEM_EXACT_MASS>
598.009947

> <PUBCHEM_MOLECULAR_FORMULA>
C18H16N8Na2O7S3

> <PUBCHEM_MOLECULAR_WEIGHT>
598.6

> <PUBCHEM_OPENEYE_CAN_SMILES>
CN1C(=NC(=O)C(=N1)[O-])SCC2=C(N3C(C(C3=O)NC(=O)C(=NOC)C4=CSC(=N4)N)SC2)C(=O)[O-].[Na+].[Na+]

> <PUBCHEM_OPENEYE_ISO_SMILES>
CN1C(=NC(=O)C(=N1)[O-])SCC2=C(N3[C@@H]([C@@H](C3=O)NC(=O)/C(=N\OC)/C4=CSC(=N4)N)SC2)C(=O)[O-].[Na+].[Na+]

> <PUBCHEM_CACTVS_TPSA>
297

> <PUBCHEM_MONOISOTOPIC_WEIGHT>
598.009947

> <PUBCHEM_TOTAL_CHARGE>
0

> <PUBCHEM_HEAVY_ATOM_COUNT>
38

> <PUBCHEM_ATOM_DEF_STEREO_COUNT>
2

> <PUBCHEM_ATOM_UDEF_STEREO_COUNT>
0

> <PUBCHEM_BOND_DEF_STEREO_COUNT>
1

> <PUBCHEM_BOND_UDEF_STEREO_COUNT>
0

> <PUBCHEM_ISOTOPIC_ATOM_COUNT>
0

> <PUBCHEM_COMPONENT_COUNT>
3

> <PUBCHEM_CACTVS_TAUTO_COUNT>
-1

> <PUBCHEM_COORDINATE_TYPE>
1
5
255

> <PUBCHEM_BONDANNOTATIONS>
22  14  5
16  19  8
16  31  8
17  31  8
17  36  8
18  32  8
18  35  8
19  37  8
21  39  6
3  33  8
3  35  8
32  33  8
36  37  8

$$$$
