95851
  -OEChem-05242006112D

 26 26  0     0  0  0  0  0  0999 V2000
    3.7320   -2.5000    0.0000 O   0  0  0  0  0  0  0  0  0  0  0  0
    2.0000    2.5000    0.0000 O   0  0  0  0  0  0  0  0  0  0  0  0
    2.8660   -1.0000    0.0000 N   0  0  0  0  0  0  0  0  0  0  0  0
    2.8660    1.0000    0.0000 N   0  0  0  0  0  0  0  0  0  0  0  0
    3.7320    0.5000    0.0000 C   0  0  0  0  0  0  0  0  0  0  0  0
    3.7320   -0.5000    0.0000 C   0  0  0  0  0  0  0  0  0  0  0  0
    2.0000    0.5000    0.0000 C   0  0  0  0  0  0  0  0  0  0  0  0
    2.0000   -0.5000    0.0000 C   0  0  0  0  0  0  0  0  0  0  0  0
    2.8660   -2.0000    0.0000 C   0  0  0  0  0  0  0  0  0  0  0  0
    2.8660    2.0000    0.0000 C   0  0  0  0  0  0  0  0  0  0  0  0
    2.0000   -2.5000    0.0000 C   0  0  0  0  0  0  0  0  0  0  0  0
    3.7320    2.5000    0.0000 C   0  0  0  0  0  0  0  0  0  0  0  0
    3.9441    1.0826    0.0000 H   0  0  0  0  0  0  0  0  0  0  0  0
    4.3426    0.3923    0.0000 H   0  0  0  0  0  0  0  0  0  0  0  0
    1.3894    0.3923    0.0000 H   0  0  0  0  0  0  0  0  0  0  0  0
    1.7880    1.0826    0.0000 H   0  0  0  0  0  0  0  0  0  0  0  0
    3.9441   -1.0826    0.0000 H   0  0  0  0  0  0  0  0  0  0  0  0
    4.3426   -0.3923    0.0000 H   0  0  0  0  0  0  0  0  0  0  0  0
    1.3894   -0.3923    0.0000 H   0  0  0  0  0  0  0  0  0  0  0  0
    1.7880   -1.0826    0.0000 H   0  0  0  0  0  0  0  0  0  0  0  0
    1.6900   -1.9631    0.0000 H   0  0  0  0  0  0  0  0  0  0  0  0
    1.4631   -2.8100    0.0000 H   0  0  0  0  0  0  0  0  0  0  0  0
    2.3100   -3.0369    0.0000 H   0  0  0  0  0  0  0  0  0  0  0  0
    4.0420    1.9631    0.0000 H   0  0  0  0  0  0  0  0  0  0  0  0
    4.2690    2.8100    0.0000 H   0  0  0  0  0  0  0  0  0  0  0  0
    3.4220    3.0369    0.0000 H   0  0  0  0  0  0  0  0  0  0  0  0
  1  9  2  0  0  0  0
  2 10  2  0  0  0  0
  3  6  1  0  0  0  0
  3  8  1  0  0  0  0
  3  9  1  0  0  0  0
  4  5  1  0  0  0  0
  4  7  1  0  0  0  0
  4 10  1  0  0  0  0
  5  6  1  0  0  0  0
  5 13  1  0  0  0  0
  5 14  1  0  0  0  0
  6 17  1  0  0  0  0
  6 18  1  0  0  0  0
  7  8  1  0  0  0  0
  7 15  1  0  0  0  0
  7 16  1  0  0  0  0
  8 19  1  0  0  0  0
  8 20  1  0  0  0  0
  9 11  1  0  0  0  0
 10 12  1  0  0  0  0
 11 21  1  0  0  0  0
 11 22  1  0  0  0  0
 11 23  1  0  0  0  0
 12 24  1  0  0  0  0
 12 25  1  0  0  0  0
 12 26  1  0  0  0  0
M  END
> <PUBCHEM_COMPOUND_CID>
95851

> <PUBCHEM_COMPOUND_CANONICALIZED>
1

> <PUBCHEM_CACTVS_COMPLEXITY>
173

> <PUBCHEM_CACTVS_HBOND_ACCEPTOR>
2

> <PUBCHEM_CACTVS_HBOND_DONOR>
0

> <PUBCHEM_CACTVS_ROTATABLE_BOND>
0

> <PUBCHEM_CACTVS_SUBSKEYS>
AAADccBzMAAAAAAAAAAAAAAAAAAAAAAAAAAsAAAAAAAAAAAAAAAAHgAAAAAAAADBgAQCAAMAAAAIAAEQEAAAAAAAAAAAAAAIAAAAQAAAAAAQAAAABgCAAAAAAAAAAAAAAAAAAAAAAAAAAAAAAAAAAAAAAA==

> <PUBCHEM_IUPAC_OPENEYE_NAME>
1-(4-acetylpiperazin-1-yl)ethanone

> <PUBCHEM_IUPAC_CAS_NAME>
1-(4-acetyl-1-piperazinyl)ethanone

> <PUBCHEM_IUPAC_NAME_MARKUP>
1-(4-acetylpiperazin-1-yl)ethanone

> <PUBCHEM_IUPAC_NAME>
1-(4-acetylpiperazin-1-yl)ethanone

> <PUBCHEM_IUPAC_SYSTEMATIC_NAME>
1-(4-ethanoylpiperazin-1-yl)ethanone

> <PUBCHEM_IUPAC_TRADITIONAL_NAME>
1-(4-acetylpiperazino)ethanone

> <PUBCHEM_IUPAC_INCHI>
InChI=1S/C8H14N2O2/c1-7(11)9-3-5-10(6-4-9)8(2)12/h3-6H2,1-2H3

> <PUBCHEM_IUPAC_INCHIKEY>
NBQBICYRKOTWRR-UHFFFAOYSA-N

> <PUBCHEM_XLOGP3_AA>
-1

> <PUBCHEM_EXACT_MASS>
170.105528

> <PUBCHEM_MOLECULAR_FORMULA>
C8H14N2O2

> <PUBCHEM_MOLECULAR_WEIGHT>
170.21

> <PUBCHEM_OPENEYE_CAN_SMILES>
CC(=O)N1CCN(CC1)C(=O)C

> <PUBCHEM_OPENEYE_ISO_SMILES>
CC(=O)N1CCN(CC1)C(=O)C

> <PUBCHEM_CACTVS_TPSA>
40.6

> <PUBCHEM_MONOISOTOPIC_WEIGHT>
170.105528

> <PUBCHEM_TOTAL_CHARGE>
0

> <PUBCHEM_HEAVY_ATOM_COUNT>
12

> <PUBCHEM_ATOM_DEF_STEREO_COUNT>
0

> <PUBCHEM_ATOM_UDEF_STEREO_COUNT>
0

> <PUBCHEM_BOND_DEF_STEREO_COUNT>
0

> <PUBCHEM_BOND_UDEF_STEREO_COUNT>
0

> <PUBCHEM_ISOTOPIC_ATOM_COUNT>
0

> <PUBCHEM_COMPONENT_COUNT>
1

> <PUBCHEM_CACTVS_TAUTO_COUNT>
-1

> <PUBCHEM_COORDINATE_TYPE>
1
5
255

$$$$
