9897015
  -OEChem-05242006132D

127128  0     1  0  0  0  0  0999 V2000
    6.1501    4.0369    0.0000 O   0  0  0  0  0  0  0  0  0  0  0  0
    4.5221    6.2777    0.0000 O   0  0  0  0  0  0  0  0  0  0  0  0
    7.2428    3.6604    0.0000 O   0  0  0  0  0  0  0  0  0  0  0  0
    4.4180    4.0369    0.0000 O   0  0  0  0  0  0  0  0  0  0  0  0
    3.3631    7.5649    0.0000 O   0  0  0  0  0  0  0  0  0  0  0  0
    6.6501    9.0683    0.0000 O   0  0  0  0  0  0  0  0  0  0  0  0
    0.8987    6.0187    0.0000 O   0  0  0  0  0  0  0  0  0  0  0  0
    6.1501    2.0369    0.0000 O   0  0  0  0  0  0  0  0  0  0  0  0
    0.7178    7.5138    0.0000 O   0  0  0  0  0  0  0  0  0  0  0  0
    8.6480   10.2714    0.0000 O   0  0  0  0  0  0  0  0  0  0  0  0
   10.1308    9.5160    0.0000 O   0  0  0  0  0  0  0  0  0  0  0  0
    5.0979    8.9870    0.0000 O   0  0  0  0  0  0  0  0  0  0  0  0
    5.9387   13.3450    0.0000 O   0  0  0  0  0  0  0  0  0  0  0  0
   10.2574    6.9856    0.0000 N   0  0  3  0  0  0  0  0  0  0  0  0
    4.4180    1.0369    0.0000 N   0  0  0  0  0  0  0  0  0  0  0  0
    6.6501    4.9030    0.0000 C   0  0  2  0  0  0  0  0  0  0  0  0
    5.9070    5.5721    0.0000 C   0  0  2  0  0  0  0  0  0  0  0  0
    7.6012    4.5939    0.0000 C   0  0  1  0  0  0  0  0  0  0  0  0
    5.5002    6.4856    0.0000 C   0  0  1  0  0  0  0  0  0  0  0  0
    8.5957    4.6985    0.0000 C   0  0  0  0  0  0  0  0  0  0  0  0
    9.4617    5.1985    0.0000 C   0  0  2  0  0  0  0  0  0  0  0  0
    5.5002    7.4856    0.0000 C   0  0  2  0  0  0  0  0  0  0  0  0
    5.2841    3.5369    0.0000 C   0  0  2  0  0  0  0  0  0  0  0  0
    5.0979    4.9843    0.0000 C   0  0  0  0  0  0  0  0  0  0  0  0
    3.5710    6.5867    0.0000 C   0  0  2  0  0  0  0  0  0  0  0  0
    8.2305    3.8168    0.0000 C   0  0  0  0  0  0  0  0  0  0  0  0
    1.8768    6.2266    0.0000 C   0  0  2  0  0  0  0  0  0  0  0  0
    5.2841    2.5369    0.0000 C   0  0  1  0  0  0  0  0  0  0  0  0
   10.0495    6.0075    0.0000 C   0  0  0  0  0  0  0  0  0  0  0  0
    4.4180    2.0369    0.0000 C   0  0  2  0  0  0  0  0  0  0  0  0
    2.8279    5.9176    0.0000 C   0  0  0  0  0  0  0  0  0  0  0  0
    1.6689    7.2048    0.0000 C   0  0  2  0  0  0  0  0  0  0  0  0
   10.0495    7.9638    0.0000 C   0  0  1  0  0  0  0  0  0  0  0  0
    8.5957    9.2728    0.0000 C   0  0  1  0  0  0  0  0  0  0  0  0
    3.5520    2.5369    0.0000 C   0  0  0  0  0  0  0  0  0  0  0  0
    9.4617    8.7728    0.0000 C   0  0  2  0  0  0  0  0  0  0  0  0
    2.4120    7.8739    0.0000 C   0  0  2  0  0  0  0  0  0  0  0  0
    3.5520    3.5369    0.0000 C   0  0  1  0  0  0  0  0  0  0  0  0
    7.6012    9.3773    0.0000 C   0  0  1  0  0  0  0  0  0  0  0  0
   10.1308    4.4553    0.0000 C   0  0  0  0  0  0  0  0  0  0  0  0
    5.9070    8.3992    0.0000 C   0  0  0  0  0  0  0  0  0  0  0  0
    4.5221    7.6936    0.0000 C   0  0  0  0  0  0  0  0  0  0  0  0
    1.5678    5.2756    0.0000 C   0  0  0  0  0  0  0  0  0  0  0  0
   10.9630    8.3705    0.0000 C   0  0  0  0  0  0  0  0  0  0  0  0
    9.3943    9.8746    0.0000 C   0  0  0  0  0  0  0  0  0  0  0  0
    7.4966   10.3719    0.0000 C   0  0  0  0  0  0  0  0  0  0  0  0
   11.2574    6.9856    0.0000 C   0  0  0  0  0  0  0  0  0  0  0  0
    2.2041    8.8520    0.0000 C   0  0  0  0  0  0  0  0  0  0  0  0
    2.6860    4.0369    0.0000 C   0  0  0  0  0  0  0  0  0  0  0  0
    3.5520    0.5369    0.0000 C   0  0  0  0  0  0  0  0  0  0  0  0
    5.2841    0.5369    0.0000 C   0  0  0  0  0  0  0  0  0  0  0  0
    6.5831   10.7786    0.0000 C   0  0  0  0  0  0  0  0  0  0  0  0
    0.5896    5.0678    0.0000 C   0  0  0  0  0  0  0  0  0  0  0  0
    6.0377    4.8060    0.0000 H   0  0  0  0  0  0  0  0  0  0  0  0
    5.3081    5.7326    0.0000 H   0  0  0  0  0  0  0  0  0  0  0  0
    5.2188    5.9332    0.0000 H   0  0  0  0  0  0  0  0  0  0  0  0
    8.4248    4.1025    0.0000 H   0  0  0  0  0  0  0  0  0  0  0  0
    8.4041    5.2881    0.0000 H   0  0  0  0  0  0  0  0  0  0  0  0
   10.0809    5.2309    0.0000 H   0  0  0  0  0  0  0  0  0  0  0  0
    5.2188    8.0381    0.0000 H   0  0  0  0  0  0  0  0  0  0  0  0
    5.2841    4.1569    0.0000 H   0  0  0  0  0  0  0  0  0  0  0  0
    4.7335    5.4859    0.0000 H   0  0  0  0  0  0  0  0  0  0  0  0
    4.5964    4.6199    0.0000 H   0  0  0  0  0  0  0  0  0  0  0  0
    5.4624    4.4827    0.0000 H   0  0  0  0  0  0  0  0  0  0  0  0
    3.6999    5.9803    0.0000 H   0  0  0  0  0  0  0  0  0  0  0  0
    7.7486    3.4266    0.0000 H   0  0  0  0  0  0  0  0  0  0  0  0
    8.6207    3.3350    0.0000 H   0  0  0  0  0  0  0  0  0  0  0  0
    8.7123    4.2070    0.0000 H   0  0  0  0  0  0  0  0  0  0  0  0
    5.2841    1.9169    0.0000 H   0  0  0  0  0  0  0  0  0  0  0  0
   10.3780    5.4817    0.0000 H   0  0  0  0  0  0  0  0  0  0  0  0
    9.4831    6.2597    0.0000 H   0  0  0  0  0  0  0  0  0  0  0  0
    3.8811    1.7269    0.0000 H   0  0  0  0  0  0  0  0  0  0  0  0
    2.5368    5.3702    0.0000 H   0  0  0  0  0  0  0  0  0  0  0  0
    3.3164    5.5359    0.0000 H   0  0  0  0  0  0  0  0  0  0  0  0
    1.2082    6.7899    0.0000 H   0  0  0  0  0  0  0  0  0  0  0  0
   10.6019    7.6823    0.0000 H   0  0  0  0  0  0  0  0  0  0  0  0
    2.9414    2.6446    0.0000 H   0  0  0  0  0  0  0  0  0  0  0  0
    3.3400    1.9543    0.0000 H   0  0  0  0  0  0  0  0  0  0  0  0
   10.0809    8.7404    0.0000 H   0  0  0  0  0  0  0  0  0  0  0  0
    2.8728    8.2888    0.0000 H   0  0  0  0  0  0  0  0  0  0  0  0
    3.5520    4.1569    0.0000 H   0  0  0  0  0  0  0  0  0  0  0  0
    7.0812    9.7150    0.0000 H   0  0  0  0  0  0  0  0  0  0  0  0
    6.6304    3.5634    0.0000 H   0  0  0  0  0  0  0  0  0  0  0  0
    9.6701    4.0405    0.0000 H   0  0  0  0  0  0  0  0  0  0  0  0
   10.5457    3.9946    0.0000 H   0  0  0  0  0  0  0  0  0  0  0  0
   10.5916    4.8702    0.0000 H   0  0  0  0  0  0  0  0  0  0  0  0
    4.6510    8.3000    0.0000 H   0  0  0  0  0  0  0  0  0  0  0  0
    3.9156    7.8224    0.0000 H   0  0  0  0  0  0  0  0  0  0  0  0
    4.3932    7.0871    0.0000 H   0  0  0  0  0  0  0  0  0  0  0  0
    0.9781    5.4672    0.0000 H   0  0  0  0  0  0  0  0  0  0  0  0
    1.3762    4.6859    0.0000 H   0  0  0  0  0  0  0  0  0  0  0  0
    2.1574    5.0840    0.0000 H   0  0  0  0  0  0  0  0  0  0  0  0
   11.2152    7.8041    0.0000 H   0  0  0  0  0  0  0  0  0  0  0  0
   11.5294    8.6227    0.0000 H   0  0  0  0  0  0  0  0  0  0  0  0
   10.7109    8.9369    0.0000 H   0  0  0  0  0  0  0  0  0  0  0  0
    9.7674    9.3795    0.0000 H   0  0  0  0  0  0  0  0  0  0  0  0
    9.8895   10.2477    0.0000 H   0  0  0  0  0  0  0  0  0  0  0  0
    9.0212   10.3698    0.0000 H   0  0  0  0  0  0  0  0  0  0  0  0
    8.1151   10.3286    0.0000 H   0  0  0  0  0  0  0  0  0  0  0  0
    7.6466   10.9734    0.0000 H   0  0  0  0  0  0  0  0  0  0  0  0
   11.2574    6.3656    0.0000 H   0  0  0  0  0  0  0  0  0  0  0  0
   11.8774    6.9856    0.0000 H   0  0  0  0  0  0  0  0  0  0  0  0
   11.2574    7.6056    0.0000 H   0  0  0  0  0  0  0  0  0  0  0  0
    2.8106    8.9810    0.0000 H   0  0  0  0  0  0  0  0  0  0  0  0
    2.0752    9.4585    0.0000 H   0  0  0  0  0  0  0  0  0  0  0  0
    1.5977    8.7232    0.0000 H   0  0  0  0  0  0  0  0  0  0  0  0
    2.9960    4.5739    0.0000 H   0  0  0  0  0  0  0  0  0  0  0  0
    2.1491    4.3469    0.0000 H   0  0  0  0  0  0  0  0  0  0  0  0
    2.3760    3.5000    0.0000 H   0  0  0  0  0  0  0  0  0  0  0  0
    6.6870    2.3469    0.0000 H   0  0  0  0  0  0  0  0  0  0  0  0
    0.5889    8.1202    0.0000 H   0  0  0  0  0  0  0  0  0  0  0  0
    8.1280   10.6091    0.0000 H   0  0  0  0  0  0  0  0  0  0  0  0
   10.7373    9.3870    0.0000 H   0  0  0  0  0  0  0  0  0  0  0  0
    3.2420    1.0739    0.0000 H   0  0  0  0  0  0  0  0  0  0  0  0
    3.0151    0.2269    0.0000 H   0  0  0  0  0  0  0  0  0  0  0  0
    3.8620    0.0000    0.0000 H   0  0  0  0  0  0  0  0  0  0  0  0
    4.9741    0.0000    0.0000 H   0  0  0  0  0  0  0  0  0  0  0  0
    5.8210    0.2269    0.0000 H   0  0  0  0  0  0  0  0  0  0  0  0
    5.5941    1.0739    0.0000 H   0  0  0  0  0  0  0  0  0  0  0  0
    6.8353   11.3450    0.0000 H   0  0  0  0  0  0  0  0  0  0  0  0
    6.0167   11.0308    0.0000 H   0  0  0  0  0  0  0  0  0  0  0  0
    6.3309   10.2122    0.0000 H   0  0  0  0  0  0  0  0  0  0  0  0
    0.0000    5.2594    0.0000 H   0  0  0  0  0  0  0  0  0  0  0  0
    0.3980    4.4781    0.0000 H   0  0  0  0  0  0  0  0  0  0  0  0
    1.1793    4.8762    0.0000 H   0  0  0  0  0  0  0  0  0  0  0  0
    6.4756   13.6550    0.0000 H   0  0  0  0  0  0  0  0  0  0  0  0
    5.4018   13.6550    0.0000 H   0  0  0  0  0  0  0  0  0  0  0  0
 16  1  1  6  0  0  0
 23  1  1  1  0  0  0
 19  2  1  6  0  0  0
 25  2  1  1  0  0  0
 18  3  1  1  0  0  0
  3 83  1  0  0  0  0
  4 23  1  0  0  0  0
  4 38  1  0  0  0  0
  5 25  1  0  0  0  0
  5 37  1  0  0  0  0
  6 39  1  0  0  0  0
  6 41  1  0  0  0  0
 27  7  1  1  0  0  0
  7 53  1  0  0  0  0
 28  8  1  6  0  0  0
  8110  1  0  0  0  0
 32  9  1  1  0  0  0
  9111  1  0  0  0  0
 34 10  1  1  0  0  0
 10112  1  0  0  0  0
 36 11  1  6  0  0  0
 11113  1  0  0  0  0
 12 41  2  0  0  0  0
 13126  1  0  0  0  0
 13127  1  0  0  0  0
 14 29  1  0  0  0  0
 14 33  1  0  0  0  0
 14 47  1  0  0  0  0
 30 15  1  1  0  0  0
 15 50  1  0  0  0  0
 15 51  1  0  0  0  0
 16 17  1  0  0  0  0
 16 18  1  0  0  0  0
 16 54  1  0  0  0  0
 17 19  1  0  0  0  0
 17 24  1  1  0  0  0
 17 55  1  0  0  0  0
 18 20  1  0  0  0  0
 18 26  1  0  0  0  0
 19 22  1  0  0  0  0
 19 56  1  0  0  0  0
 20 21  1  0  0  0  0
 20 57  1  0  0  0  0
 20 58  1  0  0  0  0
 21 29  1  0  0  0  0
 21 40  1  6  0  0  0
 21 59  1  0  0  0  0
 22 41  1  0  0  0  0
 22 42  1  1  0  0  0
 22 60  1  0  0  0  0
 23 28  1  0  0  0  0
 23 61  1  0  0  0  0
 24 62  1  0  0  0  0
 24 63  1  0  0  0  0
 24 64  1  0  0  0  0
 25 31  1  0  0  0  0
 25 65  1  0  0  0  0
 26 66  1  0  0  0  0
 26 67  1  0  0  0  0
 26 68  1  0  0  0  0
 27 31  1  0  0  0  0
 27 32  1  0  0  0  0
 27 43  1  0  0  0  0
 28 30  1  0  0  0  0
 28 69  1  0  0  0  0
 29 70  1  0  0  0  0
 29 71  1  0  0  0  0
 30 35  1  0  0  0  0
 30 72  1  0  0  0  0
 31 73  1  0  0  0  0
 31 74  1  0  0  0  0
 32 37  1  0  0  0  0
 32 75  1  0  0  0  0
 33 36  1  0  0  0  0
 33 44  1  1  0  0  0
 33 76  1  0  0  0  0
 34 36  1  0  0  0  0
 34 39  1  0  0  0  0
 34 45  1  0  0  0  0
 35 38  1  0  0  0  0
 35 77  1  0  0  0  0
 35 78  1  0  0  0  0
 36 79  1  0  0  0  0
 37 48  1  6  0  0  0
 37 80  1  0  0  0  0
 38 49  1  1  0  0  0
 38 81  1  0  0  0  0
 39 46  1  6  0  0  0
 39 82  1  0  0  0  0
 40 84  1  0  0  0  0
 40 85  1  0  0  0  0
 40 86  1  0  0  0  0
 42 87  1  0  0  0  0
 42 88  1  0  0  0  0
 42 89  1  0  0  0  0
 43 90  1  0  0  0  0
 43 91  1  0  0  0  0
 43 92  1  0  0  0  0
 44 93  1  0  0  0  0
 44 94  1  0  0  0  0
 44 95  1  0  0  0  0
 45 96  1  0  0  0  0
 45 97  1  0  0  0  0
 45 98  1  0  0  0  0
 46 52  1  0  0  0  0
 46 99  1  0  0  0  0
 46100  1  0  0  0  0
 47101  1  0  0  0  0
 47102  1  0  0  0  0
 47103  1  0  0  0  0
 48104  1  0  0  0  0
 48105  1  0  0  0  0
 48106  1  0  0  0  0
 49107  1  0  0  0  0
 49108  1  0  0  0  0
 49109  1  0  0  0  0
 50114  1  0  0  0  0
 50115  1  0  0  0  0
 50116  1  0  0  0  0
 51117  1  0  0  0  0
 51118  1  0  0  0  0
 51119  1  0  0  0  0
 52120  1  0  0  0  0
 52121  1  0  0  0  0
 52122  1  0  0  0  0
 53123  1  0  0  0  0
 53124  1  0  0  0  0
 53125  1  0  0  0  0
M  END
> <PUBCHEM_COMPOUND_CID>
9897015

> <PUBCHEM_COMPOUND_CANONICALIZED>
1

> <PUBCHEM_CACTVS_COMPLEXITY>
1150

> <PUBCHEM_CACTVS_HBOND_ACCEPTOR>
15

> <PUBCHEM_CACTVS_HBOND_DONOR>
6

> <PUBCHEM_CACTVS_ROTATABLE_BOND>
7

> <PUBCHEM_CACTVS_SUBSKEYS>
AAADcfB/PAAAAAAAAAAAAAAAAAAAAAAAAAAkSAAAAAAAAAAAAAAAHgAACAAADXzxgAcCCAMABgAIAACQCAAAAAAAAAAAAAEIAAATEBYAgAAmQAAHIACXAAH4/P7OAAAAAAAAAAAAAAAAAAAAAAAAAAAAAA==

> <PUBCHEM_IUPAC_OPENEYE_NAME>
(2R,3S,4R,5R,8R,10R,11R,12S,13S,14R)-11-[(2S,3R,4S,6R)-4-(dimethylamino)-3-hydroxy-6-methyl-tetrahydropyran-2-yl]oxy-2-ethyl-3,4,10-trihydroxy-13-[(2R,4R,5S,6S)-5-hydroxy-4-methoxy-4,6-dimethyl-tetrahydropyran-2-yl]oxy-3,5,6,8,10,12,14-heptamethyl-1-oxa-6-azacyclopentadecan-15-one;hydrate

> <PUBCHEM_IUPAC_CAS_NAME>
(2R,3S,4R,5R,8R,10R,11R,12S,13S,14R)-11-[[(2S,3R,4S,6R)-4-(dimethylamino)-3-hydroxy-6-methyl-2-oxanyl]oxy]-2-ethyl-3,4,10-trihydroxy-13-[[(2R,4R,5S,6S)-5-hydroxy-4-methoxy-4,6-dimethyl-2-oxanyl]oxy]-3,5,6,8,10,12,14-heptamethyl-1-oxa-6-azacyclopentadecan-15-one;hydrate

> <PUBCHEM_IUPAC_NAME_MARKUP>
(2<I>R</I>,3<I>S</I>,4<I>R</I>,5<I>R</I>,8<I>R</I>,10<I>R</I>,11<I>R</I>,12<I>S</I>,13<I>S</I>,14<I>R</I>)-11-[(2<I>S</I>,3<I>R</I>,4<I>S</I>,6<I>R</I>)-4-(dimethylamino)-3-hydroxy-6-methyloxan-2-yl]oxy-2-ethyl-3,4,10-trihydroxy-13-[(2<I>R</I>,4<I>R</I>,5<I>S</I>,6<I>S</I>)-5-hydroxy-4-methoxy-4,6-dimethyloxan-2-yl]oxy-3,5,6,8,10,12,14-heptamethyl-1-oxa-6-azacyclopentadecan-15-one;hydrate

> <PUBCHEM_IUPAC_NAME>
(2R,3S,4R,5R,8R,10R,11R,12S,13S,14R)-11-[(2S,3R,4S,6R)-4-(dimethylamino)-3-hydroxy-6-methyloxan-2-yl]oxy-2-ethyl-3,4,10-trihydroxy-13-[(2R,4R,5S,6S)-5-hydroxy-4-methoxy-4,6-dimethyloxan-2-yl]oxy-3,5,6,8,10,12,14-heptamethyl-1-oxa-6-azacyclopentadecan-15-one;hydrate

> <PUBCHEM_IUPAC_SYSTEMATIC_NAME>
(2R,3S,4R,5R,8R,10R,11R,12S,13S,14R)-11-[(2S,3R,4S,6R)-4-(dimethylamino)-6-methyl-3-oxidanyl-oxan-2-yl]oxy-2-ethyl-13-[(2R,4R,5S,6S)-4-methoxy-4,6-dimethyl-5-oxidanyl-oxan-2-yl]oxy-3,5,6,8,10,12,14-heptamethyl-3,4,10-tris(oxidanyl)-1-oxa-6-azacyclopentadecan-15-one;hydrate

> <PUBCHEM_IUPAC_TRADITIONAL_NAME>
(2R,3S,4R,5R,8R,10R,11R,12S,13S,14R)-11-[(2S,3R,4S,6R)-4-(dimethylamino)-3-hydroxy-6-methyl-tetrahydropyran-2-yl]oxy-2-ethyl-3,4,10-trihydroxy-13-[(2R,4R,5S,6S)-5-hydroxy-4-methoxy-4,6-dimethyl-tetrahydropyran-2-yl]oxy-3,5,6,8,10,12,14-heptamethyl-1-oxa-6-azacyclopentadecan-15-one;hydrate

> <PUBCHEM_IUPAC_INCHI>
InChI=1S/C38H72N2O12.H2O/c1-15-27-38(10,46)31(42)24(6)40(13)19-20(2)17-36(8,45)33(52-35-29(41)26(39(11)12)16-21(3)48-35)22(4)30(23(5)34(44)50-27)51-28-18-37(9,47-14)32(43)25(7)49-28;/h20-33,35,41-43,45-46H,15-19H2,1-14H3;1H2/t20-,21-,22+,23-,24-,25+,26+,27-,28+,29-,30+,31-,32+,33-,35+,36-,37-,38-;/m1./s1

> <PUBCHEM_IUPAC_INCHIKEY>
HQUPLSLYZHKKQT-WVVFQGGUSA-N

> <PUBCHEM_EXACT_MASS>
766.51909

> <PUBCHEM_MOLECULAR_FORMULA>
C38H74N2O13

> <PUBCHEM_MOLECULAR_WEIGHT>
767

> <PUBCHEM_OPENEYE_CAN_SMILES>
CCC1C(C(C(N(CC(CC(C(C(C(C(C(=O)O1)C)OC2CC(C(C(O2)C)O)(C)OC)C)OC3C(C(CC(O3)C)N(C)C)O)(C)O)C)C)C)O)(C)O.O

> <PUBCHEM_OPENEYE_ISO_SMILES>
CC[C@@H]1[C@@]([C@@H]([C@H](N(C[C@@H](C[C@@]([C@@H]([C@H]([C@@H]([C@H](C(=O)O1)C)O[C@H]2C[C@@]([C@H]([C@@H](O2)C)O)(C)OC)C)O[C@H]3[C@@H]([C@H](C[C@H](O3)C)N(C)C)O)(C)O)C)C)C)O)(C)O.O

> <PUBCHEM_CACTVS_TPSA>
181

> <PUBCHEM_MONOISOTOPIC_WEIGHT>
766.51909

> <PUBCHEM_TOTAL_CHARGE>
0

> <PUBCHEM_HEAVY_ATOM_COUNT>
53

> <PUBCHEM_ATOM_DEF_STEREO_COUNT>
18

> <PUBCHEM_ATOM_UDEF_STEREO_COUNT>
0

> <PUBCHEM_BOND_DEF_STEREO_COUNT>
0

> <PUBCHEM_BOND_UDEF_STEREO_COUNT>
0

> <PUBCHEM_ISOTOPIC_ATOM_COUNT>
0

> <PUBCHEM_COMPONENT_COUNT>
2

> <PUBCHEM_CACTVS_TAUTO_COUNT>
-1

> <PUBCHEM_COORDINATE_TYPE>
1
5
255

> <PUBCHEM_BONDANNOTATIONS>
16  1  6
23  1  5
34  10  5
36  11  6
30  15  5
17  24  5
19  2  6
25  2  5
21  40  6
22  42  5
18  3  5
33  44  5
37  48  6
38  49  5
39  46  6
27  7  5
28  8  6
32  9  5

$$$$
