9926791
  -OEChem-05242006132D

 43 45  0     1  0  0  0  0  0999 V2000
    4.5981   -0.3030    0.0000 O   0  0  0  0  0  0  0  0  0  0  0  0
    5.4641    1.1970    0.0000 N   0  0  0  0  0  0  0  0  0  0  0  0
    8.0622    0.6970    0.0000 N   0  0  3  0  0  0  0  0  0  0  0  0
    7.1962   -0.8030    0.0000 N   0  0  0  0  0  0  0  0  0  0  0  0
    9.8744   -2.1077    0.0000 N   0  0  0  0  0  0  0  0  0  0  0  0
    8.0622   -2.3030    0.0000 N   0  0  0  0  0  0  0  0  0  0  0  0
    2.0000    0.1970    0.0000 N   0  0  0  0  0  0  0  0  0  0  0  0
    7.1962    1.1970    0.0000 C   0  0  2  0  0  0  0  0  0  0  0  0
    7.1962    2.1970    0.0000 C   0  0  1  0  0  0  0  0  0  0  0  0
    6.3301    2.6970    0.0000 C   0  0  0  0  0  0  0  0  0  0  0  0
    6.3301    0.6970    0.0000 C   0  0  0  0  0  0  0  0  0  0  0  0
    5.4641    2.1970    0.0000 C   0  0  0  0  0  0  0  0  0  0  0  0
    8.0622    2.6970    0.0000 C   0  0  0  0  0  0  0  0  0  0  0  0
    8.0622   -0.3030    0.0000 C   0  0  0  0  0  0  0  0  0  0  0  0
    4.5981    0.6970    0.0000 C   0  0  0  0  0  0  0  0  0  0  0  0
    8.9282    1.1970    0.0000 C   0  0  0  0  0  0  0  0  0  0  0  0
    8.9282   -0.8030    0.0000 C   0  0  0  0  0  0  0  0  0  0  0  0
    3.7320    1.1970    0.0000 C   0  0  0  0  0  0  0  0  0  0  0  0
    8.9282   -1.8030    0.0000 C   0  0  0  0  0  0  0  0  0  0  0  0
    9.8744   -0.4982    0.0000 C   0  0  0  0  0  0  0  0  0  0  0  0
    7.1962   -1.8030    0.0000 C   0  0  0  0  0  0  0  0  0  0  0  0
   10.4580   -1.3030    0.0000 C   0  0  0  0  0  0  0  0  0  0  0  0
    2.8660    0.6970    0.0000 C   0  0  0  0  0  0  0  0  0  0  0  0
    7.7331    1.5070    0.0000 H   0  0  0  0  0  0  0  0  0  0  0  0
    7.1962    2.8170    0.0000 H   0  0  0  0  0  0  0  0  0  0  0  0
    6.7287    3.1720    0.0000 H   0  0  0  0  0  0  0  0  0  0  0  0
    5.9316    3.1720    0.0000 H   0  0  0  0  0  0  0  0  0  0  0  0
    5.9316    0.2221    0.0000 H   0  0  0  0  0  0  0  0  0  0  0  0
    6.7287    0.2221    0.0000 H   0  0  0  0  0  0  0  0  0  0  0  0
    5.2520    2.7796    0.0000 H   0  0  0  0  0  0  0  0  0  0  0  0
    4.8535    2.0894    0.0000 H   0  0  0  0  0  0  0  0  0  0  0  0
    8.3722    2.1601    0.0000 H   0  0  0  0  0  0  0  0  0  0  0  0
    8.5991    3.0070    0.0000 H   0  0  0  0  0  0  0  0  0  0  0  0
    7.7522    3.2340    0.0000 H   0  0  0  0  0  0  0  0  0  0  0  0
    9.2382    0.6601    0.0000 H   0  0  0  0  0  0  0  0  0  0  0  0
    9.4651    1.5070    0.0000 H   0  0  0  0  0  0  0  0  0  0  0  0
    8.6182    1.7340    0.0000 H   0  0  0  0  0  0  0  0  0  0  0  0
    4.1306    1.6720    0.0000 H   0  0  0  0  0  0  0  0  0  0  0  0
    3.3335    1.6720    0.0000 H   0  0  0  0  0  0  0  0  0  0  0  0
   10.0670    0.0911    0.0000 H   0  0  0  0  0  0  0  0  0  0  0  0
   10.0670   -2.6970    0.0000 H   0  0  0  0  0  0  0  0  0  0  0  0
    6.6592   -2.1130    0.0000 H   0  0  0  0  0  0  0  0  0  0  0  0
   11.0780   -1.3030    0.0000 H   0  0  0  0  0  0  0  0  0  0  0  0
  1 15  2  0  0  0  0
  2 11  1  0  0  0  0
  2 12  1  0  0  0  0
  2 15  1  0  0  0  0
  8  3  1  1  0  0  0
  3 14  1  0  0  0  0
  3 16  1  0  0  0  0
  4 14  2  0  0  0  0
  4 21  1  0  0  0  0
  5 19  1  0  0  0  0
  5 22  1  0  0  0  0
  5 41  1  0  0  0  0
  6 19  1  0  0  0  0
  6 21  2  0  0  0  0
  7 23  3  0  0  0  0
  8  9  1  0  0  0  0
  8 11  1  0  0  0  0
  8 24  1  0  0  0  0
  9 10  1  0  0  0  0
  9 13  1  1  0  0  0
  9 25  1  0  0  0  0
 10 12  1  0  0  0  0
 10 26  1  0  0  0  0
 10 27  1  0  0  0  0
 11 28  1  0  0  0  0
 11 29  1  0  0  0  0
 12 30  1  0  0  0  0
 12 31  1  0  0  0  0
 13 32  1  0  0  0  0
 13 33  1  0  0  0  0
 13 34  1  0  0  0  0
 14 17  1  0  0  0  0
 15 18  1  0  0  0  0
 16 35  1  0  0  0  0
 16 36  1  0  0  0  0
 16 37  1  0  0  0  0
 17 19  2  0  0  0  0
 17 20  1  0  0  0  0
 18 23  1  0  0  0  0
 18 38  1  0  0  0  0
 18 39  1  0  0  0  0
 20 22  2  0  0  0  0
 20 40  1  0  0  0  0
 21 42  1  0  0  0  0
 22 43  1  0  0  0  0
M  END
> <PUBCHEM_COMPOUND_CID>
9926791

> <PUBCHEM_COMPOUND_CANONICALIZED>
1

> <PUBCHEM_CACTVS_COMPLEXITY>
488

> <PUBCHEM_CACTVS_HBOND_ACCEPTOR>
5

> <PUBCHEM_CACTVS_HBOND_DONOR>
1

> <PUBCHEM_CACTVS_ROTATABLE_BOND>
3

> <PUBCHEM_CACTVS_SUBSKEYS>
AAADceB7oAAAAAAAAAAAAAAAAAAAAWAAAAAsWAAAAAAAAFgB+AAAHgAQAAAADSjBmwQ/sN/JkAC4BjN3dACCgCmxAqAJ2aE4ZJiI6MJAyMEUBAhIFgLAQCAQAAAKAAAAAAAAAAAAAAAAAAAAAAAAAAAAAA==

> <PUBCHEM_IUPAC_OPENEYE_NAME>
3-[(3R,4R)-4-methyl-3-[methyl(7H-pyrrolo[2,3-d]pyrimidin-4-yl)amino]-1-piperidyl]-3-oxo-propanenitrile

> <PUBCHEM_IUPAC_CAS_NAME>
3-[(3R,4R)-4-methyl-3-[methyl(7H-pyrrolo[2,3-d]pyrimidin-4-yl)amino]-1-piperidinyl]-3-oxopropanenitrile

> <PUBCHEM_IUPAC_NAME_MARKUP>
3-[(3<I>R</I>,4<I>R</I>)-4-methyl-3-[methyl(7<I>H</I>-pyrrolo[2,3-d]pyrimidin-4-yl)amino]piperidin-1-yl]-3-oxopropanenitrile

> <PUBCHEM_IUPAC_NAME>
3-[(3R,4R)-4-methyl-3-[methyl(7H-pyrrolo[2,3-d]pyrimidin-4-yl)amino]piperidin-1-yl]-3-oxopropanenitrile

> <PUBCHEM_IUPAC_SYSTEMATIC_NAME>
3-[(3R,4R)-4-methyl-3-[methyl(7H-pyrrolo[2,3-d]pyrimidin-4-yl)amino]piperidin-1-yl]-3-oxidanylidene-propanenitrile

> <PUBCHEM_IUPAC_TRADITIONAL_NAME>
3-keto-3-[(3R,4R)-4-methyl-3-[methyl(7H-pyrrolo[2,3-d]pyrimidin-4-yl)amino]piperidino]propionitrile

> <PUBCHEM_IUPAC_INCHI>
InChI=1S/C16H20N6O/c1-11-5-8-22(14(23)3-6-17)9-13(11)21(2)16-12-4-7-18-15(12)19-10-20-16/h4,7,10-11,13H,3,5,8-9H2,1-2H3,(H,18,19,20)/t11-,13+/m1/s1

> <PUBCHEM_IUPAC_INCHIKEY>
UJLAWZDWDVHWOW-YPMHNXCESA-N

> <PUBCHEM_XLOGP3_AA>
1.5

> <PUBCHEM_EXACT_MASS>
312.169859

> <PUBCHEM_MOLECULAR_FORMULA>
C16H20N6O

> <PUBCHEM_MOLECULAR_WEIGHT>
312.37

> <PUBCHEM_OPENEYE_CAN_SMILES>
CC1CCN(CC1N(C)C2=NC=NC3=C2C=CN3)C(=O)CC#N

> <PUBCHEM_OPENEYE_ISO_SMILES>
C[C@@H]1CCN(C[C@@H]1N(C)C2=NC=NC3=C2C=CN3)C(=O)CC#N

> <PUBCHEM_CACTVS_TPSA>
88.9

> <PUBCHEM_MONOISOTOPIC_WEIGHT>
312.169859

> <PUBCHEM_TOTAL_CHARGE>
0

> <PUBCHEM_HEAVY_ATOM_COUNT>
23

> <PUBCHEM_ATOM_DEF_STEREO_COUNT>
2

> <PUBCHEM_ATOM_UDEF_STEREO_COUNT>
0

> <PUBCHEM_BOND_DEF_STEREO_COUNT>
0

> <PUBCHEM_BOND_UDEF_STEREO_COUNT>
0

> <PUBCHEM_ISOTOPIC_ATOM_COUNT>
0

> <PUBCHEM_COMPONENT_COUNT>
1

> <PUBCHEM_CACTVS_TAUTO_COUNT>
-1

> <PUBCHEM_COORDINATE_TYPE>
1
5
255

> <PUBCHEM_BONDANNOTATIONS>
14  17  8
17  19  8
17  20  8
20  22  8
8  3  5
4  14  8
4  21  8
5  19  8
5  22  8
6  19  8
6  21  8
9  13  5

$$$$
