2733525
  -OEChem-05242017482D

 78 79  0     0  0  0  0  0  0999 V2000
   10.5390    3.6200    0.0000 O   0  0  0  0  0  0  0  0  0  0  0  0
    2.7690    4.1195    0.0000 O   0  0  0  0  0  0  0  0  0  0  0  0
    4.0010    4.9855    0.0000 O   0  0  0  0  0  0  0  0  0  0  0  0
    3.1350    6.4855    0.0000 O   0  0  0  0  0  0  0  0  0  0  0  0
    0.5369    2.9855    0.0000 O   0  0  0  0  0  0  0  0  0  0  0  0
    0.2690    6.7176    0.0000 O   0  0  0  0  0  0  0  0  0  0  0  0
    2.2690    2.9855    0.0000 O   0  0  0  0  0  0  0  0  0  0  0  0
    0.2690    4.9855    0.0000 O   0  0  0  0  0  0  0  0  0  0  0  0
    8.8070    1.6200    0.0000 N   0  0  0  0  0  0  0  0  0  0  0  0
   10.5390    7.6200    0.0000 C   0  0  0  0  0  0  0  0  0  0  0  0
    9.6730    8.1200    0.0000 C   0  0  0  0  0  0  0  0  0  0  0  0
    9.6730    9.1200    0.0000 C   0  0  0  0  0  0  0  0  0  0  0  0
   10.5390    6.6200    0.0000 C   0  0  0  0  0  0  0  0  0  0  0  0
    2.2690    4.9855    0.0000 C   0  0  0  0  0  0  0  0  0  0  0  0
   11.4050    8.1200    0.0000 C   0  0  0  0  0  0  0  0  0  0  0  0
    8.8070    7.6200    0.0000 C   0  0  0  0  0  0  0  0  0  0  0  0
    1.4030    4.4855    0.0000 C   0  0  0  0  0  0  0  0  0  0  0  0
    1.7690    5.8515    0.0000 C   0  0  0  0  0  0  0  0  0  0  0  0
   11.4050    6.1200    0.0000 C   0  0  0  0  0  0  0  0  0  0  0  0
    9.6730    6.1200    0.0000 C   0  0  0  0  0  0  0  0  0  0  0  0
    8.8070    9.6200    0.0000 C   0  0  0  0  0  0  0  0  0  0  0  0
   10.5390    4.6200    0.0000 C   0  0  0  0  0  0  0  0  0  0  0  0
   12.2711    7.6200    0.0000 C   0  0  0  0  0  0  0  0  0  0  0  0
   11.4050    9.1200    0.0000 C   0  0  0  0  0  0  0  0  0  0  0  0
    7.9409    8.1200    0.0000 C   0  0  0  0  0  0  0  0  0  0  0  0
    8.8070    6.6200    0.0000 C   0  0  0  0  0  0  0  0  0  0  0  0
   11.4050    5.1200    0.0000 C   0  0  0  0  0  0  0  0  0  0  0  0
    9.6730    5.1200    0.0000 C   0  0  0  0  0  0  0  0  0  0  0  0
    3.1350    5.4855    0.0000 C   0  0  0  0  0  0  0  0  0  0  0  0
    9.6730    3.1200    0.0000 C   0  0  0  0  0  0  0  0  0  0  0  0
    9.6730    2.1200    0.0000 C   0  0  0  0  0  0  0  0  0  0  0  0
   13.1371    8.1200    0.0000 C   0  0  0  0  0  0  0  0  0  0  0  0
   12.2711    9.6200    0.0000 C   0  0  0  0  0  0  0  0  0  0  0  0
    7.0749    7.6200    0.0000 C   0  0  0  0  0  0  0  0  0  0  0  0
    7.9409    6.1200    0.0000 C   0  0  0  0  0  0  0  0  0  0  0  0
    1.4030    3.4855    0.0000 C   0  0  0  0  0  0  0  0  0  0  0  0
    0.7690    5.8515    0.0000 C   0  0  0  0  0  0  0  0  0  0  0  0
   13.1371    9.1200    0.0000 C   0  0  0  0  0  0  0  0  0  0  0  0
    7.0749    6.6200    0.0000 C   0  0  0  0  0  0  0  0  0  0  0  0
    8.8070    0.6200    0.0000 C   0  0  0  0  0  0  0  0  0  0  0  0
    7.9409    2.1200    0.0000 C   0  0  0  0  0  0  0  0  0  0  0  0
   10.2836    9.0123    0.0000 H   0  0  0  0  0  0  0  0  0  0  0  0
    9.8850    9.7026    0.0000 H   0  0  0  0  0  0  0  0  0  0  0  0
    1.1909    5.0681    0.0000 H   0  0  0  0  0  0  0  0  0  0  0  0
    0.7924    4.3778    0.0000 H   0  0  0  0  0  0  0  0  0  0  0  0
    2.3516    6.0636    0.0000 H   0  0  0  0  0  0  0  0  0  0  0  0
    1.6613    6.4621    0.0000 H   0  0  0  0  0  0  0  0  0  0  0  0
   11.9420    6.4300    0.0000 H   0  0  0  0  0  0  0  0  0  0  0  0
    9.1360    6.4300    0.0000 H   0  0  0  0  0  0  0  0  0  0  0  0
    9.1170   10.1569    0.0000 H   0  0  0  0  0  0  0  0  0  0  0  0
    8.2700    9.9300    0.0000 H   0  0  0  0  0  0  0  0  0  0  0  0
    8.4970    9.0831    0.0000 H   0  0  0  0  0  0  0  0  0  0  0  0
   12.2711    7.0000    0.0000 H   0  0  0  0  0  0  0  0  0  0  0  0
   10.8681    9.4300    0.0000 H   0  0  0  0  0  0  0  0  0  0  0  0
    7.9409    8.7400    0.0000 H   0  0  0  0  0  0  0  0  0  0  0  0
    9.3439    6.3100    0.0000 H   0  0  0  0  0  0  0  0  0  0  0  0
   11.9420    4.8100    0.0000 H   0  0  0  0  0  0  0  0  0  0  0  0
    9.1360    4.8100    0.0000 H   0  0  0  0  0  0  0  0  0  0  0  0
    9.4609    3.7026    0.0000 H   0  0  0  0  0  0  0  0  0  0  0  0
    9.0624    3.0123    0.0000 H   0  0  0  0  0  0  0  0  0  0  0  0
    9.8850    1.5374    0.0000 H   0  0  0  0  0  0  0  0  0  0  0  0
   10.2836    2.2277    0.0000 H   0  0  0  0  0  0  0  0  0  0  0  0
   13.6740    7.8100    0.0000 H   0  0  0  0  0  0  0  0  0  0  0  0
   12.2711   10.2400    0.0000 H   0  0  0  0  0  0  0  0  0  0  0  0
    6.5380    7.9300    0.0000 H   0  0  0  0  0  0  0  0  0  0  0  0
    7.9409    5.5000    0.0000 H   0  0  0  0  0  0  0  0  0  0  0  0
    2.4590    3.5826    0.0000 H   0  0  0  0  0  0  0  0  0  0  0  0
   13.6740    9.4300    0.0000 H   0  0  0  0  0  0  0  0  0  0  0  0
    6.5380    6.3100    0.0000 H   0  0  0  0  0  0  0  0  0  0  0  0
    8.1870    0.6200    0.0000 H   0  0  0  0  0  0  0  0  0  0  0  0
    8.8070    0.0000    0.0000 H   0  0  0  0  0  0  0  0  0  0  0  0
    9.4270    0.6200    0.0000 H   0  0  0  0  0  0  0  0  0  0  0  0
    8.2509    2.6569    0.0000 H   0  0  0  0  0  0  0  0  0  0  0  0
    7.4040    2.4300    0.0000 H   0  0  0  0  0  0  0  0  0  0  0  0
    7.6309    1.5831    0.0000 H   0  0  0  0  0  0  0  0  0  0  0  0
    4.5380    5.2955    0.0000 H   0  0  0  0  0  0  0  0  0  0  0  0
    0.0000    3.2955    0.0000 H   0  0  0  0  0  0  0  0  0  0  0  0
    0.5790    7.2545    0.0000 H   0  0  0  0  0  0  0  0  0  0  0  0
  1 22  1  0  0  0  0
  1 30  1  0  0  0  0
  2 14  1  0  0  0  0
  2 67  1  0  0  0  0
  3 29  1  0  0  0  0
  3 76  1  0  0  0  0
  4 29  2  0  0  0  0
  5 36  1  0  0  0  0
  5 77  1  0  0  0  0
  6 37  1  0  0  0  0
  6 78  1  0  0  0  0
  7 36  2  0  0  0  0
  8 37  2  0  0  0  0
  9 31  1  0  0  0  0
  9 40  1  0  0  0  0
  9 41  1  0  0  0  0
 10 11  2  0  0  0  0
 10 13  1  0  0  0  0
 10 15  1  0  0  0  0
 11 12  1  0  0  0  0
 11 16  1  0  0  0  0
 12 21  1  0  0  0  0
 12 42  1  0  0  0  0
 12 43  1  0  0  0  0
 13 19  2  0  0  0  0
 13 20  1  0  0  0  0
 14 17  1  0  0  0  0
 14 18  1  0  0  0  0
 14 29  1  0  0  0  0
 15 23  2  0  0  0  0
 15 24  1  0  0  0  0
 16 25  2  0  0  0  0
 16 26  1  0  0  0  0
 17 36  1  0  0  0  0
 17 44  1  0  0  0  0
 17 45  1  0  0  0  0
 18 37  1  0  0  0  0
 18 46  1  0  0  0  0
 18 47  1  0  0  0  0
 19 27  1  0  0  0  0
 19 48  1  0  0  0  0
 20 28  2  0  0  0  0
 20 49  1  0  0  0  0
 21 50  1  0  0  0  0
 21 51  1  0  0  0  0
 21 52  1  0  0  0  0
 22 27  2  0  0  0  0
 22 28  1  0  0  0  0
 23 32  1  0  0  0  0
 23 53  1  0  0  0  0
 24 33  2  0  0  0  0
 24 54  1  0  0  0  0
 25 34  1  0  0  0  0
 25 55  1  0  0  0  0
 26 35  2  0  0  0  0
 26 56  1  0  0  0  0
 27 57  1  0  0  0  0
 28 58  1  0  0  0  0
 30 31  1  0  0  0  0
 30 59  1  0  0  0  0
 30 60  1  0  0  0  0
 31 61  1  0  0  0  0
 31 62  1  0  0  0  0
 32 38  2  0  0  0  0
 32 63  1  0  0  0  0
 33 38  1  0  0  0  0
 33 64  1  0  0  0  0
 34 39  2  0  0  0  0
 34 65  1  0  0  0  0
 35 39  1  0  0  0  0
 35 66  1  0  0  0  0
 38 68  1  0  0  0  0
 39 69  1  0  0  0  0
 40 70  1  0  0  0  0
 40 71  1  0  0  0  0
 40 72  1  0  0  0  0
 41 73  1  0  0  0  0
 41 74  1  0  0  0  0
 41 75  1  0  0  0  0
M  END
> <PUBCHEM_COMPOUND_CID>
2733525

> <PUBCHEM_COMPOUND_CANONICALIZED>
1

> <PUBCHEM_CACTVS_COMPLEXITY>
690

> <PUBCHEM_CACTVS_HBOND_ACCEPTOR>
9

> <PUBCHEM_CACTVS_HBOND_DONOR>
4

> <PUBCHEM_CACTVS_ROTATABLE_BOND>
13

> <PUBCHEM_CACTVS_SUBSKEYS>
AAADcfB+PAAAAAAAAAAAAAAAAAAAAAAAAAAwYMAAAAAAAAABUAAAHgAACAAADEThmAYyDoMABgCIAiDSCAICCAAgIAAIiAFOCIgPJjaEMRqDeCCl4BEZqAfL5uAOIAAAAAAAAABAAAAAAAAAAAAAAAAAAA==

> <PUBCHEM_IUPAC_OPENEYE_NAME>
citric acid;2-[4-[(Z)-1,2-diphenylbut-1-enyl]phenoxy]-N,N-dimethyl-ethanamine

> <PUBCHEM_IUPAC_CAS_NAME>
2-[4-[(Z)-1,2-diphenylbut-1-enyl]phenoxy]-N,N-dimethylethanamine;2-hydroxypropane-1,2,3-tricarboxylic acid

> <PUBCHEM_IUPAC_NAME_MARKUP>
2-[4-[(<I>Z</I>)-1,2-diphenylbut-1-enyl]phenoxy]-<I>N</I>,<I>N</I>-dimethylethanamine;2-hydroxypropane-1,2,3-tricarboxylic acid

> <PUBCHEM_IUPAC_NAME>
2-[4-[(Z)-1,2-diphenylbut-1-enyl]phenoxy]-N,N-dimethylethanamine;2-hydroxypropane-1,2,3-tricarboxylic acid

> <PUBCHEM_IUPAC_SYSTEMATIC_NAME>
2-[4-[(Z)-1,2-diphenylbut-1-enyl]phenoxy]-N,N-dimethyl-ethanamine;2-oxidanylpropane-1,2,3-tricarboxylic acid

> <PUBCHEM_IUPAC_TRADITIONAL_NAME>
citric acid;2-[4-[(Z)-1,2-diphenylbut-1-enyl]phenoxy]ethyl-dimethyl-amine

> <PUBCHEM_IUPAC_INCHI>
InChI=1S/C26H29NO.C6H8O7/c1-4-25(21-11-7-5-8-12-21)26(22-13-9-6-10-14-22)23-15-17-24(18-16-23)28-20-19-27(2)3;7-3(8)1-6(13,5(11)12)2-4(9)10/h5-18H,4,19-20H2,1-3H3;13H,1-2H2,(H,7,8)(H,9,10)(H,11,12)/b26-25-;

> <PUBCHEM_IUPAC_INCHIKEY>
FQZYTYWMLGAPFJ-OQKDUQJOSA-N

> <PUBCHEM_EXACT_MASS>
563.251917

> <PUBCHEM_MOLECULAR_FORMULA>
C32H37NO8

> <PUBCHEM_MOLECULAR_WEIGHT>
563.6

> <PUBCHEM_OPENEYE_CAN_SMILES>
CCC(=C(C1=CC=CC=C1)C2=CC=C(C=C2)OCCN(C)C)C3=CC=CC=C3.C(C(=O)O)C(CC(=O)O)(C(=O)O)O

> <PUBCHEM_OPENEYE_ISO_SMILES>
CC/C(=C(\C1=CC=CC=C1)/C2=CC=C(C=C2)OCCN(C)C)/C3=CC=CC=C3.C(C(=O)O)C(CC(=O)O)(C(=O)O)O

> <PUBCHEM_CACTVS_TPSA>
145

> <PUBCHEM_MONOISOTOPIC_WEIGHT>
563.251917

> <PUBCHEM_TOTAL_CHARGE>
0

> <PUBCHEM_HEAVY_ATOM_COUNT>
41

> <PUBCHEM_ATOM_DEF_STEREO_COUNT>
0

> <PUBCHEM_ATOM_UDEF_STEREO_COUNT>
0

> <PUBCHEM_BOND_DEF_STEREO_COUNT>
1

> <PUBCHEM_BOND_UDEF_STEREO_COUNT>
0

> <PUBCHEM_ISOTOPIC_ATOM_COUNT>
0

> <PUBCHEM_COMPONENT_COUNT>
2

> <PUBCHEM_CACTVS_TAUTO_COUNT>
-1

> <PUBCHEM_COORDINATE_TYPE>
1
5
255

> <PUBCHEM_BONDANNOTATIONS>
13  19  8
13  20  8
15  23  8
15  24  8
16  25  8
16  26  8
19  27  8
20  28  8
22  27  8
22  28  8
23  32  8
24  33  8
25  34  8
26  35  8
32  38  8
33  38  8
34  39  8
35  39  8

$$$$
