3005572
 OpenBabel05262015012D

 57 59  0  0  0  0  0  0  0  0999 V2000
    8.8070   10.6200    0.0000 Cl  0  0  0  0  0  0  0  0  0  0  0  0
   10.5390    3.6200    0.0000 O   0  0  0  0  0  0  0  0  0  0  0  0
    8.8070    1.6200    0.0000 N   0  0  0  0  0  0  0  0  0  0  0  0
    9.6730    8.1200    0.0000 C   0  0  0  0  0  0  0  0  0  0  0  0
   10.5390    7.6200    0.0000 C   0  0  0  0  0  0  0  0  0  0  0  0
    9.6730    9.1200    0.0000 C   0  0  0  0  0  0  0  0  0  0  0  0
   10.5390    6.6200    0.0000 C   0  0  0  0  0  0  0  0  0  0  0  0
   11.4050    8.1200    0.0000 C   0  0  0  0  0  0  0  0  0  0  0  0
    8.8070    7.6200    0.0000 C   0  0  0  0  0  0  0  0  0  0  0  0
   11.4050    6.1200    0.0000 C   0  0  0  0  0  0  0  0  0  0  0  0
    9.6730    6.1200    0.0000 C   0  0  0  0  0  0  0  0  0  0  0  0
    8.8070    9.6200    0.0000 C   0  0  0  0  0  0  0  0  0  0  0  0
   10.5390    4.6200    0.0000 C   0  0  0  0  0  0  0  0  0  0  0  0
   12.2711    7.6200    0.0000 C   0  0  0  0  0  0  0  0  0  0  0  0
   11.4050    9.1200    0.0000 C   0  0  0  0  0  0  0  0  0  0  0  0
    7.9409    8.1200    0.0000 C   0  0  0  0  0  0  0  0  0  0  0  0
    8.8070    6.6200    0.0000 C   0  0  0  0  0  0  0  0  0  0  0  0
   11.4050    5.1200    0.0000 C   0  0  0  0  0  0  0  0  0  0  0  0
    9.6730    5.1200    0.0000 C   0  0  0  0  0  0  0  0  0  0  0  0
    9.6730    3.1200    0.0000 C   0  0  0  0  0  0  0  0  0  0  0  0
    9.6730    2.1200    0.0000 C   0  0  0  0  0  0  0  0  0  0  0  0
   13.1371    8.1200    0.0000 C   0  0  0  0  0  0  0  0  0  0  0  0
   12.2711    9.6200    0.0000 C   0  0  0  0  0  0  0  0  0  0  0  0
    7.0749    7.6200    0.0000 C   0  0  0  0  0  0  0  0  0  0  0  0
    7.9409    6.1200    0.0000 C   0  0  0  0  0  0  0  0  0  0  0  0
   13.1371    9.1200    0.0000 C   0  0  0  0  0  0  0  0  0  0  0  0
    7.0749    6.6200    0.0000 C   0  0  0  0  0  0  0  0  0  0  0  0
    8.8070    0.6200    0.0000 C   0  0  0  0  0  0  0  0  0  0  0  0
    7.9409    2.1200    0.0000 C   0  0  0  0  0  0  0  0  0  0  0  0
   10.2836    9.0123    0.0000 H   0  0  0  0  0  0  0  0  0  0  0  0
    9.8850    9.7026    0.0000 H   0  0  0  0  0  0  0  0  0  0  0  0
   11.9420    6.4300    0.0000 H   0  0  0  0  0  0  0  0  0  0  0  0
    9.1360    6.4300    0.0000 H   0  0  0  0  0  0  0  0  0  0  0  0
    8.1964    9.7277    0.0000 H   0  0  0  0  0  0  0  0  0  0  0  0
    8.5949    9.0374    0.0000 H   0  0  0  0  0  0  0  0  0  0  0  0
   12.2711    7.0000    0.0000 H   0  0  0  0  0  0  0  0  0  0  0  0
   10.8681    9.4300    0.0000 H   0  0  0  0  0  0  0  0  0  0  0  0
    7.9409    8.7400    0.0000 H   0  0  0  0  0  0  0  0  0  0  0  0
    9.3439    6.3100    0.0000 H   0  0  0  0  0  0  0  0  0  0  0  0
   11.9420    4.8100    0.0000 H   0  0  0  0  0  0  0  0  0  0  0  0
    9.1360    4.8100    0.0000 H   0  0  0  0  0  0  0  0  0  0  0  0
    9.4609    3.7026    0.0000 H   0  0  0  0  0  0  0  0  0  0  0  0
    9.0624    3.0123    0.0000 H   0  0  0  0  0  0  0  0  0  0  0  0
    9.8850    1.5374    0.0000 H   0  0  0  0  0  0  0  0  0  0  0  0
   10.2836    2.2277    0.0000 H   0  0  0  0  0  0  0  0  0  0  0  0
   13.6740    7.8100    0.0000 H   0  0  0  0  0  0  0  0  0  0  0  0
   12.2711   10.2400    0.0000 H   0  0  0  0  0  0  0  0  0  0  0  0
    6.5380    7.9300    0.0000 H   0  0  0  0  0  0  0  0  0  0  0  0
    7.9409    5.5000    0.0000 H   0  0  0  0  0  0  0  0  0  0  0  0
   13.6740    9.4300    0.0000 H   0  0  0  0  0  0  0  0  0  0  0  0
    6.5380    6.3100    0.0000 H   0  0  0  0  0  0  0  0  0  0  0  0
    8.1870    0.6200    0.0000 H   0  0  0  0  0  0  0  0  0  0  0  0
    8.8070    0.0000    0.0000 H   0  0  0  0  0  0  0  0  0  0  0  0
    9.4270    0.6200    0.0000 H   0  0  0  0  0  0  0  0  0  0  0  0
    8.2509    2.6569    0.0000 H   0  0  0  0  0  0  0  0  0  0  0  0
    7.4040    2.4300    0.0000 H   0  0  0  0  0  0  0  0  0  0  0  0
    7.6309    1.5831    0.0000 H   0  0  0  0  0  0  0  0  0  0  0  0
  1 12  1  0  0  0  0
  2 13  1  0  0  0  0
  2 20  1  0  0  0  0
  3 21  1  0  0  0  0
  3 28  1  0  0  0  0
  3 29  1  0  0  0  0
  4  5  2  0  0  0  0
  4  6  1  0  0  0  0
  4  9  1  0  0  0  0
  5  7  1  0  0  0  0
  5  8  1  0  0  0  0
  6 12  1  0  0  0  0
  6 30  1  0  0  0  0
  6 31  1  0  0  0  0
  7 10  2  0  0  0  0
  7 11  1  0  0  0  0
  8 14  2  0  0  0  0
  8 15  1  0  0  0  0
  9 16  2  0  0  0  0
  9 17  1  0  0  0  0
 10 18  1  0  0  0  0
 10 32  1  0  0  0  0
 11 19  2  0  0  0  0
 11 33  1  0  0  0  0
 12 34  1  0  0  0  0
 12 35  1  0  0  0  0
 13 18  2  0  0  0  0
 13 19  1  0  0  0  0
 14 22  1  0  0  0  0
 14 36  1  0  0  0  0
 15 23  2  0  0  0  0
 15 37  1  0  0  0  0
 16 24  1  0  0  0  0
 16 38  1  0  0  0  0
 17 25  2  0  0  0  0
 17 39  1  0  0  0  0
 18 40  1  0  0  0  0
 19 41  1  0  0  0  0
 20 21  1  0  0  0  0
 20 42  1  0  0  0  0
 20 43  1  0  0  0  0
 21 44  1  0  0  0  0
 21 45  1  0  0  0  0
 22 26  2  0  0  0  0
 22 46  1  0  0  0  0
 23 26  1  0  0  0  0
 23 47  1  0  0  0  0
 24 27  2  0  0  0  0
 24 48  1  0  0  0  0
 25 27  1  0  0  0  0
 25 49  1  0  0  0  0
 26 50  1  0  0  0  0
 27 51  1  0  0  0  0
 28 52  1  0  0  0  0
 28 53  1  0  0  0  0
 28 54  1  0  0  0  0
 29 55  1  0  0  0  0
 29 56  1  0  0  0  0
 29 57  1  0  0  0  0
M  END
>  <PUBCHEM_COMPOUND_CID>
3005572

>  <PUBCHEM_COMPOUND_CANONICALIZED>
1

>  <PUBCHEM_CACTVS_COMPLEXITY>
710

>  <PUBCHEM_CACTVS_HBOND_ACCEPTOR>
9

>  <PUBCHEM_CACTVS_HBOND_DONOR>
4

>  <PUBCHEM_CACTVS_ROTATABLE_BOND>
14

>  <PUBCHEM_CACTVS_SUBSKEYS>
AAADcfB+PAAEAAAAAAAAAAAAAAAAAAAAAAAwYMAAAAAAAAABUAAAHgIACAAADEfhmEYyDoMABgCIAiDSCAICCAAgIAAIiAFOCogPJjaFMRqDeCCl4BEZqAfL5uAOIAAAAAAAAABAAAAAAAAAAAAAAAAAAA==

>  <PUBCHEM_IUPAC_OPENEYE_NAME>
2-[4-[(Z)-4-chloro-1,2-diphenyl-but-1-enyl]phenoxy]-N,N-dimethyl-ethanamine;citric acid

>  <PUBCHEM_IUPAC_CAS_NAME>
2-[4-[(Z)-4-chloro-1,2-diphenylbut-1-enyl]phenoxy]-N,N-dimethylethanamine;2-hydroxypropane-1,2,3-tricarboxylic acid

>  <PUBCHEM_IUPAC_NAME_MARKUP>
2-[4-[(<I>Z</I>)-4-chloro-1,2-diphenylbut-1-enyl]phenoxy]-<I>N</I>,<I>N</I>-dimethylethanamine;2-hydroxypropane-1,2,3-tricarboxylic acid

>  <PUBCHEM_IUPAC_NAME>
2-[4-[(Z)-4-chloro-1,2-diphenylbut-1-enyl]phenoxy]-N,N-dimethylethanamine;2-hydroxypropane-1,2,3-tricarboxylic acid

>  <PUBCHEM_IUPAC_SYSTEMATIC_NAME>
2-[4-[(Z)-4-chloranyl-1,2-diphenyl-but-1-enyl]phenoxy]-N,N-dimethyl-ethanamine;2-oxidanylpropane-1,2,3-tricarboxylic acid

>  <PUBCHEM_IUPAC_TRADITIONAL_NAME>
2-[4-[(Z)-4-chloro-1,2-diphenyl-but-1-enyl]phenoxy]ethyl-dimethyl-amine;citric acid

>  <PUBCHEM_IUPAC_INCHI>
InChI=1S/C26H28ClNO.C6H8O7/c1-28(2)19-20-29-24-15-13-23(14-16-24)26(22-11-7-4-8-12-22)25(17-18-27)21-9-5-3-6-10-21;7-3(8)1-6(13,5(11)12)2-4(9)10/h3-16H,17-20H2,1-2H3;13H,1-2H2,(H,7,8)(H,9,10)(H,11,12)/b26-25-;

>  <PUBCHEM_IUPAC_INCHIKEY>
IWEQQRMGNVVKQW-OQKDUQJOSA-N

>  <PUBCHEM_EXACT_MASS>
597.212945

>  <PUBCHEM_MOLECULAR_FORMULA>
C32H36ClNO8

>  <PUBCHEM_MOLECULAR_WEIGHT>
598.1

>  <PUBCHEM_OPENEYE_CAN_SMILES>
CN(C)CCOC1=CC=C(C=C1)C(=C(CCCl)C2=CC=CC=C2)C3=CC=CC=C3.C(C(=O)O)C(CC(=O)O)(C(=O)O)O

>  <PUBCHEM_OPENEYE_ISO_SMILES>
CN(C)CCOC1=CC=C(C=C1)/C(=C(/CCCl)\C2=CC=CC=C2)/C3=CC=CC=C3.C(C(=O)O)C(CC(=O)O)(C(=O)O)O

>  <PUBCHEM_CACTVS_TPSA>
145

>  <PUBCHEM_MONOISOTOPIC_WEIGHT>
597.212945

>  <PUBCHEM_TOTAL_CHARGE>
0

>  <PUBCHEM_HEAVY_ATOM_COUNT>
42

>  <PUBCHEM_ATOM_DEF_STEREO_COUNT>
0

>  <PUBCHEM_ATOM_UDEF_STEREO_COUNT>
0

>  <PUBCHEM_BOND_DEF_STEREO_COUNT>
1

>  <PUBCHEM_BOND_UDEF_STEREO_COUNT>
0

>  <PUBCHEM_ISOTOPIC_ATOM_COUNT>
0

>  <PUBCHEM_COMPONENT_COUNT>
2

>  <PUBCHEM_CACTVS_TAUTO_COUNT>
-1

>  <PUBCHEM_COORDINATE_TYPE>
1
5
255

>  <PUBCHEM_BONDANNOTATIONS>
14  20  8
14  21  8
16  24  8
16  25  8
17  26  8
17  27  8
20  28  8
21  29  8
23  28  8
23  29  8
24  33  8
25  34  8
26  35  8
27  36  8
33  39  8
34  39  8
35  40  8
36  40  8

$$$$
