33958
 OpenBabel05262015012D

 64 66  0  0  0  0  0  0  0  0999 V2000
    4.4298    8.4864    0.0000 O   0  0  0  0  0  0  0  0  0  0  0  0
   11.4392    8.4864    0.0000 O   0  0  0  0  0  0  0  0  0  0  0  0
    7.9345   10.3990    0.0000 O   0  0  0  0  0  0  0  0  0  0  0  0
    2.1085    7.2170    0.0000 N   0  0  0  0  0  0  0  0  0  0  0  0
   13.7605    7.2170    0.0000 N   0  0  0  0  0  0  0  0  0  0  0  0
    7.4345    7.8601    0.0000 C   0  0  0  0  0  0  0  0  0  0  0  0
    8.4345    7.8601    0.0000 C   0  0  0  0  0  0  0  0  0  0  0  0
    7.1255    8.8112    0.0000 C   0  0  0  0  0  0  0  0  0  0  0  0
    8.7435    8.8112    0.0000 C   0  0  0  0  0  0  0  0  0  0  0  0
    7.9345    9.3990    0.0000 C   0  0  0  0  0  0  0  0  0  0  0  0
    2.7805    7.9576    0.0000 C   0  0  0  0  0  0  0  0  0  0  0  0
   13.0885    7.9576    0.0000 C   0  0  0  0  0  0  0  0  0  0  0  0
    6.1101    9.0434    0.0000 C   0  0  0  0  0  0  0  0  0  0  0  0
    9.7589    9.0434    0.0000 C   0  0  0  0  0  0  0  0  0  0  0  0
    6.7495    7.0754    0.0000 C   0  0  0  0  0  0  0  0  0  0  0  0
    9.1195    7.0754    0.0000 C   0  0  0  0  0  0  0  0  0  0  0  0
    5.4071    8.2748    0.0000 C   0  0  0  0  0  0  0  0  0  0  0  0
   10.4619    8.2748    0.0000 C   0  0  0  0  0  0  0  0  0  0  0  0
    3.7578    7.7459    0.0000 C   0  0  0  0  0  0  0  0  0  0  0  0
   12.1112    7.7459    0.0000 C   0  0  0  0  0  0  0  0  0  0  0  0
    5.7290    7.2841    0.0000 C   0  0  0  0  0  0  0  0  0  0  0  0
   10.1400    7.2841    0.0000 C   0  0  0  0  0  0  0  0  0  0  0  0
    1.1311    7.4287    0.0000 C   0  0  0  0  0  0  0  0  0  0  0  0
    2.4138    6.2648    0.0000 C   0  0  0  0  0  0  0  0  0  0  0  0
   14.7379    7.4287    0.0000 C   0  0  0  0  0  0  0  0  0  0  0  0
   13.4552    6.2648    0.0000 C   0  0  0  0  0  0  0  0  0  0  0  0
    0.4591    6.6881    0.0000 C   0  0  0  0  0  0  0  0  0  0  0  0
    1.7418    5.5242    0.0000 C   0  0  0  0  0  0  0  0  0  0  0  0
   15.4098    6.6881    0.0000 C   0  0  0  0  0  0  0  0  0  0  0  0
   14.1272    5.5242    0.0000 C   0  0  0  0  0  0  0  0  0  0  0  0
    3.0149    8.5315    0.0000 H   0  0  0  0  0  0  0  0  0  0  0  0
    2.2560    8.2881    0.0000 H   0  0  0  0  0  0  0  0  0  0  0  0
   13.6130    8.2881    0.0000 H   0  0  0  0  0  0  0  0  0  0  0  0
   12.8540    8.5315    0.0000 H   0  0  0  0  0  0  0  0  0  0  0  0
    5.9253    9.6353    0.0000 H   0  0  0  0  0  0  0  0  0  0  0  0
    9.9437    9.6353    0.0000 H   0  0  0  0  0  0  0  0  0  0  0  0
    6.9479    6.4880    0.0000 H   0  0  0  0  0  0  0  0  0  0  0  0
    8.9211    6.4880    0.0000 H   0  0  0  0  0  0  0  0  0  0  0  0
    3.5233    7.1719    0.0000 H   0  0  0  0  0  0  0  0  0  0  0  0
    4.2823    7.4153    0.0000 H   0  0  0  0  0  0  0  0  0  0  0  0
   11.5867    7.4153    0.0000 H   0  0  0  0  0  0  0  0  0  0  0  0
   12.3457    7.1719    0.0000 H   0  0  0  0  0  0  0  0  0  0  0  0
    5.3159    6.8218    0.0000 H   0  0  0  0  0  0  0  0  0  0  0  0
   10.5531    6.8218    0.0000 H   0  0  0  0  0  0  0  0  0  0  0  0
    1.3656    8.0026    0.0000 H   0  0  0  0  0  0  0  0  0  0  0  0
    0.6066    7.7592    0.0000 H   0  0  0  0  0  0  0  0  0  0  0  0
    2.7936    5.7747    0.0000 H   0  0  0  0  0  0  0  0  0  0  0  0
    2.9624    6.5537    0.0000 H   0  0  0  0  0  0  0  0  0  0  0  0
   15.2624    7.7592    0.0000 H   0  0  0  0  0  0  0  0  0  0  0  0
   14.5034    8.0026    0.0000 H   0  0  0  0  0  0  0  0  0  0  0  0
   12.9066    6.5537    0.0000 H   0  0  0  0  0  0  0  0  0  0  0  0
   13.0753    5.7747    0.0000 H   0  0  0  0  0  0  0  0  0  0  0  0
    0.0000    7.1048    0.0000 H   0  0  0  0  0  0  0  0  0  0  0  0
    0.0425    6.2290    0.0000 H   0  0  0  0  0  0  0  0  0  0  0  0
    0.9183    6.2715    0.0000 H   0  0  0  0  0  0  0  0  0  0  0  0
    1.2827    5.9408    0.0000 H   0  0  0  0  0  0  0  0  0  0  0  0
    1.3252    5.0650    0.0000 H   0  0  0  0  0  0  0  0  0  0  0  0
    2.2010    5.1076    0.0000 H   0  0  0  0  0  0  0  0  0  0  0  0
   14.9507    6.2715    0.0000 H   0  0  0  0  0  0  0  0  0  0  0  0
   15.8265    6.2290    0.0000 H   0  0  0  0  0  0  0  0  0  0  0  0
   15.8690    7.1048    0.0000 H   0  0  0  0  0  0  0  0  0  0  0  0
   13.6680    5.1076    0.0000 H   0  0  0  0  0  0  0  0  0  0  0  0
   14.5438    5.0650    0.0000 H   0  0  0  0  0  0  0  0  0  0  0  0
   14.5863    5.9408    0.0000 H   0  0  0  0  0  0  0  0  0  0  0  0
  1 17  1  0  0  0  0
  1 19  1  0  0  0  0
  2 18  1  0  0  0  0
  2 20  1  0  0  0  0
  3 10  2  0  0  0  0
  4 11  1  0  0  0  0
  4 23  1  0  0  0  0
  4 24  1  0  0  0  0
  5 12  1  0  0  0  0
  5 25  1  0  0  0  0
  5 26  1  0  0  0  0
  6  7  1  0  0  0  0
  6  8  2  0  0  0  0
  6 15  1  0  0  0  0
  7  9  2  0  0  0  0
  7 16  1  0  0  0  0
  8 10  1  0  0  0  0
  8 13  1  0  0  0  0
  9 10  1  0  0  0  0
  9 14  1  0  0  0  0
 11 19  1  0  0  0  0
 11 31  1  0  0  0  0
 11 32  1  0  0  0  0
 12 20  1  0  0  0  0
 12 33  1  0  0  0  0
 12 34  1  0  0  0  0
 13 17  2  0  0  0  0
 13 35  1  0  0  0  0
 14 18  2  0  0  0  0
 14 36  1  0  0  0  0
 15 21  2  0  0  0  0
 15 37  1  0  0  0  0
 16 22  2  0  0  0  0
 16 38  1  0  0  0  0
 17 21  1  0  0  0  0
 18 22  1  0  0  0  0
 19 39  1  0  0  0  0
 19 40  1  0  0  0  0
 20 41  1  0  0  0  0
 20 42  1  0  0  0  0
 21 43  1  0  0  0  0
 22 44  1  0  0  0  0
 23 27  1  0  0  0  0
 23 45  1  0  0  0  0
 23 46  1  0  0  0  0
 24 28  1  0  0  0  0
 24 47  1  0  0  0  0
 24 48  1  0  0  0  0
 25 29  1  0  0  0  0
 25 49  1  0  0  0  0
 25 50  1  0  0  0  0
 26 30  1  0  0  0  0
 26 51  1  0  0  0  0
 26 52  1  0  0  0  0
 27 53  1  0  0  0  0
 27 54  1  0  0  0  0
 27 55  1  0  0  0  0
 28 56  1  0  0  0  0
 28 57  1  0  0  0  0
 28 58  1  0  0  0  0
 29 59  1  0  0  0  0
 29 60  1  0  0  0  0
 29 61  1  0  0  0  0
 30 62  1  0  0  0  0
 30 63  1  0  0  0  0
 30 64  1  0  0  0  0
M  END
>  <PUBCHEM_COMPOUND_CID>
33958

>  <PUBCHEM_COMPOUND_CANONICALIZED>
1

>  <PUBCHEM_CACTVS_COMPLEXITY>
477

>  <PUBCHEM_CACTVS_HBOND_ACCEPTOR>
5

>  <PUBCHEM_CACTVS_HBOND_DONOR>
2

>  <PUBCHEM_CACTVS_ROTATABLE_BOND>
12

>  <PUBCHEM_CACTVS_SUBSKEYS>
AAADcfB7MAAGAAAAAAAAAAAAAAAAAYAAAAAwYAAAAAAAAGABQAAAHgAAAAAADAThmAYyBoMABACIAqBSAAACCAAkIAAIiAEOCMgOJjKENRqDOSCkwBGYqYeKyPCOoAABAAAQAABAAAIAACAAAQAACAAAAA==

>  <PUBCHEM_IUPAC_OPENEYE_NAME>
2,7-bis[2-(diethylamino)ethoxy]fluoren-9-one;dihydrochloride

>  <PUBCHEM_IUPAC_CAS_NAME>
2,7-bis[2-(diethylamino)ethoxy]-9-fluorenone;dihydrochloride

>  <PUBCHEM_IUPAC_NAME_MARKUP>
2,7-bis[2-(diethylamino)ethoxy]fluoren-9-one;dihydrochloride

>  <PUBCHEM_IUPAC_NAME>
2,7-bis[2-(diethylamino)ethoxy]fluoren-9-one;dihydrochloride

>  <PUBCHEM_IUPAC_SYSTEMATIC_NAME>
2,7-bis[2-(diethylamino)ethoxy]fluoren-9-one;dihydrochloride

>  <PUBCHEM_IUPAC_TRADITIONAL_NAME>
2,7-bis[2-(diethylamino)ethoxy]fluoren-9-one;dihydrochloride

>  <PUBCHEM_IUPAC_INCHI>
InChI=1S/C25H34N2O3.2ClH/c1-5-26(6-2)13-15-29-19-9-11-21-22-12-10-20(30-16-14-27(7-3)8-4)18-24(22)25(28)23(21)17-19;;/h9-12,17-18H,5-8,13-16H2,1-4H3;2*1H

>  <PUBCHEM_IUPAC_INCHIKEY>
BSVYJQAWONIOOU-UHFFFAOYSA-N

>  <PUBCHEM_EXACT_MASS>
482.210298

>  <PUBCHEM_MOLECULAR_FORMULA>
C25H36Cl2N2O3

>  <PUBCHEM_MOLECULAR_WEIGHT>
483.5

>  <PUBCHEM_OPENEYE_CAN_SMILES>
CCN(CC)CCOC1=CC2=C(C=C1)C3=C(C2=O)C=C(C=C3)OCCN(CC)CC.Cl.Cl

>  <PUBCHEM_OPENEYE_ISO_SMILES>
CCN(CC)CCOC1=CC2=C(C=C1)C3=C(C2=O)C=C(C=C3)OCCN(CC)CC.Cl.Cl

>  <PUBCHEM_CACTVS_TPSA>
42

>  <PUBCHEM_MONOISOTOPIC_WEIGHT>
482.210298

>  <PUBCHEM_TOTAL_CHARGE>
0

>  <PUBCHEM_HEAVY_ATOM_COUNT>
32

>  <PUBCHEM_ATOM_DEF_STEREO_COUNT>
0

>  <PUBCHEM_ATOM_UDEF_STEREO_COUNT>
0

>  <PUBCHEM_BOND_DEF_STEREO_COUNT>
0

>  <PUBCHEM_BOND_UDEF_STEREO_COUNT>
0

>  <PUBCHEM_ISOTOPIC_ATOM_COUNT>
0

>  <PUBCHEM_COMPONENT_COUNT>
3

>  <PUBCHEM_CACTVS_TAUTO_COUNT>
-1

>  <PUBCHEM_COORDINATE_TYPE>
1
5
255

>  <PUBCHEM_BONDANNOTATIONS>
10  15  8
11  16  8
15  19  8
16  20  8
17  23  8
18  24  8
19  23  8
20  24  8
8  10  8
8  17  8
9  11  8
9  18  8

$$$$
