60749
 OpenBabel05262015012D

 29 30  0  0  1  0  0  0  0  0999 V2000
    4.2068    2.0470    0.0000 F   0  0  0  0  0  0  0  0  0  0  0  0
    3.8435    3.1651    0.0000 F   0  0  0  0  0  0  0  0  0  0  0  0
    1.6377    2.3561    0.0000 O   0  0  0  0  0  0  0  0  0  0  0  0
    3.5345    0.5960    0.0000 O   0  0  0  0  0  0  0  0  0  0  0  0
    0.3644    0.7005    0.0000 O   0  0  0  0  0  0  0  0  0  0  0  0
    4.1788    3.9438    0.0000 O   0  0  0  0  0  0  0  0  0  0  0  0
    2.4467    3.9438    0.0000 N   0  0  0  0  0  0  0  0  0  0  0  0
    3.3128    5.4438    0.0000 N   0  0  0  0  0  0  0  0  0  0  0  0
    2.4467    6.9438    0.0000 N   0  0  0  0  0  0  0  0  0  0  0  0
    2.9467    1.4050    0.0000 C   0  0  1  0  0  0  0  0  0  0  0  0
    3.2558    2.3561    0.0000 C   0  0  0  0  0  0  0  0  0  0  0  0
    1.9467    1.4050    0.0000 C   0  0  1  0  0  0  0  0  0  0  0  0
    2.4467    2.9438    0.0000 C   0  0  1  0  0  0  0  0  0  0  0  0
    1.3590    0.5960    0.0000 C   0  0  0  0  0  0  0  0  0  0  0  0
    1.5807    4.4438    0.0000 C   0  0  0  0  0  0  0  0  0  0  0  0
    3.3128    4.4438    0.0000 C   0  0  0  0  0  0  0  0  0  0  0  0
    1.5807    5.4438    0.0000 C   0  0  0  0  0  0  0  0  0  0  0  0
    2.4467    5.9438    0.0000 C   0  0  0  0  0  0  0  0  0  0  0  0
    3.5591    1.5020    0.0000 H   0  0  0  0  0  0  0  0  0  0  0  0
    1.3344    1.5020    0.0000 H   0  0  0  0  0  0  0  0  0  0  0  0
    2.9992    3.2253    0.0000 H   0  0  0  0  0  0  0  0  0  0  0  0
    1.1880    0.0000    0.0000 H   0  0  0  0  0  0  0  0  0  0  0  0
    1.9162    0.3242    0.0000 H   0  0  0  0  0  0  0  0  0  0  0  0
    3.2823    0.0296    0.0000 H   0  0  0  0  0  0  0  0  0  0  0  0
    1.0438    4.1338    0.0000 H   0  0  0  0  0  0  0  0  0  0  0  0
    0.0000    0.1989    0.0000 H   0  0  0  0  0  0  0  0  0  0  0  0
    1.0438    5.7538    0.0000 H   0  0  0  0  0  0  0  0  0  0  0  0
    1.9098    7.2538    0.0000 H   0  0  0  0  0  0  0  0  0  0  0  0
    2.9837    7.2538    0.0000 H   0  0  0  0  0  0  0  0  0  0  0  0
  1 11  1  0  0  0  0
  2 11  1  0  0  0  0
  3 12  1  0  0  0  0
  3 13  1  0  0  0  0
  4 24  1  0  0  0  0
  5 14  1  0  0  0  0
  5 26  1  0  0  0  0
  6 16  2  0  0  0  0
  7 15  1  0  0  0  0
  7 16  1  0  0  0  0
  8 16  1  0  0  0  0
  8 18  2  0  0  0  0
  9 18  1  0  0  0  0
  9 28  1  0  0  0  0
  9 29  1  0  0  0  0
 10  4  1  0  0  0  0
 10 11  1  0  0  0  0
 10 12  1  0  0  0  0
 10 19  1  1  0  0  0
 11 13  1  0  0  0  0
 12 14  1  0  0  0  0
 12 20  1  6  0  0  0
 13  7  1  0  0  0  0
 13 21  1  6  0  0  0
 14 22  1  0  0  0  0
 14 23  1  0  0  0  0
 15 17  2  0  0  0  0
 15 25  1  0  0  0  0
 17 18  1  0  0  0  0
 17 27  1  0  0  0  0
M  END
>  <PUBCHEM_COMPOUND_CID>
60749

>  <PUBCHEM_COMPOUND_CANONICALIZED>
1

>  <PUBCHEM_CACTVS_COMPLEXITY>
426

>  <PUBCHEM_CACTVS_HBOND_ACCEPTOR>
6

>  <PUBCHEM_CACTVS_HBOND_DONOR>
4

>  <PUBCHEM_CACTVS_ROTATABLE_BOND>
2

>  <PUBCHEM_CACTVS_SUBSKEYS>
AAADccBzOYAEAAAAAAAAAAAAAAAAASAAAAAgAAAAAAAAAAAAAAAAHwAQCAAACBThgBYBAANABgCoACJmdACAAAEAAgAIAAAYABCBEAIAgAAOQAAHFgIDAACwMAIAAAAAAAAAAAAAAAAAAAAAAAAAAAAAAA==

>  <PUBCHEM_IUPAC_OPENEYE_NAME>
4-amino-1-[(2R,4R,5R)-3,3-difluoro-4-hydroxy-5-(hydroxymethyl)tetrahydrofuran-2-yl]pyrimidin-2-one;hydrochloride

>  <PUBCHEM_IUPAC_CAS_NAME>
4-amino-1-[(2R,4R,5R)-3,3-difluoro-4-hydroxy-5-(hydroxymethyl)-2-oxolanyl]-2-pyrimidinone;hydrochloride

>  <PUBCHEM_IUPAC_NAME_MARKUP>
4-amino-1-[(2<I>R</I>,4<I>R</I>,5<I>R</I>)-3,3-difluoro-4-hydroxy-5-(hydroxymethyl)oxolan-2-yl]pyrimidin-2-one;hydrochloride

>  <PUBCHEM_IUPAC_NAME>
4-amino-1-[(2R,4R,5R)-3,3-difluoro-4-hydroxy-5-(hydroxymethyl)oxolan-2-yl]pyrimidin-2-one;hydrochloride

>  <PUBCHEM_IUPAC_SYSTEMATIC_NAME>
4-azanyl-1-[(2R,4R,5R)-3,3-bis(fluoranyl)-5-(hydroxymethyl)-4-oxidanyl-oxolan-2-yl]pyrimidin-2-one;hydrochloride

>  <PUBCHEM_IUPAC_TRADITIONAL_NAME>
4-amino-1-[(2R,4R,5R)-3,3-difluoro-4-hydroxy-5-methylol-tetrahydrofuran-2-yl]pyrimidin-2-one;hydrochloride

>  <PUBCHEM_IUPAC_INCHI>
InChI=1S/C9H11F2N3O4.ClH/c10-9(11)6(16)4(3-15)18-7(9)14-2-1-5(12)13-8(14)17;/h1-2,4,6-7,15-16H,3H2,(H2,12,13,17);1H/t4-,6-,7-;/m1./s1

>  <PUBCHEM_IUPAC_INCHIKEY>
OKKDEIYWILRZIA-OSZBKLCCSA-N

>  <PUBCHEM_EXACT_MASS>
299.04844

>  <PUBCHEM_MOLECULAR_FORMULA>
C9H12ClF2N3O4

>  <PUBCHEM_MOLECULAR_WEIGHT>
299.66

>  <PUBCHEM_OPENEYE_CAN_SMILES>
C1=CN(C(=O)N=C1N)C2C(C(C(O2)CO)O)(F)F.Cl

>  <PUBCHEM_OPENEYE_ISO_SMILES>
C1=CN(C(=O)N=C1N)[C@H]2C([C@@H]([C@H](O2)CO)O)(F)F.Cl

>  <PUBCHEM_CACTVS_TPSA>
108

>  <PUBCHEM_MONOISOTOPIC_WEIGHT>
299.04844

>  <PUBCHEM_TOTAL_CHARGE>
0

>  <PUBCHEM_HEAVY_ATOM_COUNT>
19

>  <PUBCHEM_ATOM_DEF_STEREO_COUNT>
3

>  <PUBCHEM_ATOM_UDEF_STEREO_COUNT>
0

>  <PUBCHEM_BOND_DEF_STEREO_COUNT>
0

>  <PUBCHEM_BOND_UDEF_STEREO_COUNT>
0

>  <PUBCHEM_ISOTOPIC_ATOM_COUNT>
0

>  <PUBCHEM_COMPONENT_COUNT>
2

>  <PUBCHEM_CACTVS_TAUTO_COUNT>
-1

>  <PUBCHEM_COORDINATE_TYPE>
1
5
255

>  <PUBCHEM_BONDANNOTATIONS>
13  15  5
16  18  8
18  19  8
11  5  6
14  8  5
8  16  8
8  17  8
9  17  8
9  19  8

$$$$
