6246
 OpenBabel05262015012D

 47 49  0  0  0  0  0  0  0  0999 V2000
    3.0154    0.6305    0.0000 Cl  0  0  0  0  0  0  0  0  0  0  0  0
   10.0096    5.6546    0.0000 O   0  0  0  0  0  0  0  0  0  0  0  0
    7.4116    7.1546    0.0000 N   0  0  0  0  0  0  0  0  0  0  0  0
    6.5455    3.6546    0.0000 N   0  0  0  0  0  0  0  0  0  0  0  0
    6.5455    0.6546    0.0000 N   0  0  0  0  0  0  0  0  0  0  0  0
    8.2776    6.6546    0.0000 C   0  0  0  0  0  0  0  0  0  0  0  0
    8.2776    5.6546    0.0000 C   0  0  0  0  0  0  0  0  0  0  0  0
    7.4116    8.1546    0.0000 C   0  0  0  0  0  0  0  0  0  0  0  0
    6.5455    6.6546    0.0000 C   0  0  0  0  0  0  0  0  0  0  0  0
    7.4116    5.1546    0.0000 C   0  0  0  0  0  0  0  0  0  0  0  0
    7.4116    4.1546    0.0000 C   0  0  0  0  0  0  0  0  0  0  0  0
    9.1436    5.1546    0.0000 C   0  0  0  0  0  0  0  0  0  0  0  0
    6.5455    8.6546    0.0000 C   0  0  0  0  0  0  0  0  0  0  0  0
    5.6795    7.1546    0.0000 C   0  0  0  0  0  0  0  0  0  0  0  0
    8.2776    3.6546    0.0000 C   0  0  0  0  0  0  0  0  0  0  0  0
    9.1436    4.1546    0.0000 C   0  0  0  0  0  0  0  0  0  0  0  0
    6.5455    2.6546    0.0000 C   0  0  0  0  0  0  0  0  0  0  0  0
    5.6795    2.1546    0.0000 C   0  0  0  0  0  0  0  0  0  0  0  0
    5.6795    1.1546    0.0000 C   0  0  0  0  0  0  0  0  0  0  0  0
    7.4116    2.1546    0.0000 C   0  0  0  0  0  0  0  0  0  0  0  0
    4.7856    2.6893    0.0000 C   0  0  0  0  0  0  0  0  0  0  0  0
    4.7856    0.6200    0.0000 C   0  0  0  0  0  0  0  0  0  0  0  0
    7.4116    1.1546    0.0000 C   0  0  0  0  0  0  0  0  0  0  0  0
    3.8795    2.1754    0.0000 C   0  0  0  0  0  0  0  0  0  0  0  0
    3.8795    1.1338    0.0000 C   0  0  0  0  0  0  0  0  0  0  0  0
    8.8882    6.5470    0.0000 H   0  0  0  0  0  0  0  0  0  0  0  0
    8.4896    7.2372    0.0000 H   0  0  0  0  0  0  0  0  0  0  0  0
    8.0222    8.0470    0.0000 H   0  0  0  0  0  0  0  0  0  0  0  0
    7.6236    8.7372    0.0000 H   0  0  0  0  0  0  0  0  0  0  0  0
    6.1470    6.1797    0.0000 H   0  0  0  0  0  0  0  0  0  0  0  0
    6.9441    6.1797    0.0000 H   0  0  0  0  0  0  0  0  0  0  0  0
    6.8746    5.4646    0.0000 H   0  0  0  0  0  0  0  0  0  0  0  0
    6.8556    9.1916    0.0000 H   0  0  0  0  0  0  0  0  0  0  0  0
    6.0086    8.9646    0.0000 H   0  0  0  0  0  0  0  0  0  0  0  0
    6.2356    8.1177    0.0000 H   0  0  0  0  0  0  0  0  0  0  0  0
    5.9895    7.6916    0.0000 H   0  0  0  0  0  0  0  0  0  0  0  0
    5.1426    7.4646    0.0000 H   0  0  0  0  0  0  0  0  0  0  0  0
    5.3695    6.6177    0.0000 H   0  0  0  0  0  0  0  0  0  0  0  0
    6.0086    3.9646    0.0000 H   0  0  0  0  0  0  0  0  0  0  0  0
    8.2776    3.0346    0.0000 H   0  0  0  0  0  0  0  0  0  0  0  0
    9.6806    3.8446    0.0000 H   0  0  0  0  0  0  0  0  0  0  0  0
    7.9485    2.4646    0.0000 H   0  0  0  0  0  0  0  0  0  0  0  0
    4.7928    3.3092    0.0000 H   0  0  0  0  0  0  0  0  0  0  0  0
   10.5466    5.3446    0.0000 H   0  0  0  0  0  0  0  0  0  0  0  0
    4.7928    0.0000    0.0000 H   0  0  0  0  0  0  0  0  0  0  0  0
    7.9485    0.8446    0.0000 H   0  0  0  0  0  0  0  0  0  0  0  0
    3.3438    2.4875    0.0000 H   0  0  0  0  0  0  0  0  0  0  0  0
  1 25  1  0  0  0  0
  2 12  1  0  0  0  0
  2 44  1  0  0  0  0
  3  6  1  0  0  0  0
  3  8  1  0  0  0  0
  3  9  1  0  0  0  0
  4 11  1  0  0  0  0
  4 17  1  0  0  0  0
  4 39  1  0  0  0  0
  5 19  2  0  0  0  0
  5 23  1  0  0  0  0
  6  7  1  0  0  0  0
  6 26  1  0  0  0  0
  6 27  1  0  0  0  0
  7 10  1  0  0  0  0
  7 12  2  0  0  0  0
  8 13  1  0  0  0  0
  8 28  1  0  0  0  0
  8 29  1  0  0  0  0
  9 14  1  0  0  0  0
  9 30  1  0  0  0  0
  9 31  1  0  0  0  0
 10 11  2  0  0  0  0
 10 32  1  0  0  0  0
 11 15  1  0  0  0  0
 12 16  1  0  0  0  0
 13 33  1  0  0  0  0
 13 34  1  0  0  0  0
 13 35  1  0  0  0  0
 14 36  1  0  0  0  0
 14 37  1  0  0  0  0
 14 38  1  0  0  0  0
 15 16  2  0  0  0  0
 15 40  1  0  0  0  0
 16 41  1  0  0  0  0
 17 18  2  0  0  0  0
 17 20  1  0  0  0  0
 18 19  1  0  0  0  0
 18 21  1  0  0  0  0
 19 22  1  0  0  0  0
 20 23  2  0  0  0  0
 20 42  1  0  0  0  0
 21 24  2  0  0  0  0
 21 43  1  0  0  0  0
 22 25  2  0  0  0  0
 22 45  1  0  0  0  0
 23 46  1  0  0  0  0
 24 25  1  0  0  0  0
 24 47  1  0  0  0  0
M  END
>  <PUBCHEM_COMPOUND_CID>
6246

>  <PUBCHEM_COMPOUND_CANONICALIZED>
1

>  <PUBCHEM_CACTVS_COMPLEXITY>
406

>  <PUBCHEM_CACTVS_HBOND_ACCEPTOR>
4

>  <PUBCHEM_CACTVS_HBOND_DONOR>
4

>  <PUBCHEM_CACTVS_ROTATABLE_BOND>
6

>  <PUBCHEM_CACTVS_SUBSKEYS>
AAADceB7IAAGAAAAAAAAAAAAAAAAAAAAAAA8YIAAAAAAAACx9AAAHgIQCAAADA7BniQ+xvPIEgCgAzRnRACCgCAxJyAI2CA+bpgIJuLD09OEdAhm0BHI2AewwKAOBEAAQAIKAAAIgACABBQAAAAAAAAAAA==

>  <PUBCHEM_IUPAC_OPENEYE_NAME>
4-[(7-chloro-4-quinolyl)amino]-2-(diethylaminomethyl)phenol;dihydrochloride

>  <PUBCHEM_IUPAC_CAS_NAME>
4-[(7-chloro-4-quinolinyl)amino]-2-(diethylaminomethyl)phenol;dihydrochloride

>  <PUBCHEM_IUPAC_NAME_MARKUP>
4-[(7-chloroquinolin-4-yl)amino]-2-(diethylaminomethyl)phenol;dihydrochloride

>  <PUBCHEM_IUPAC_NAME>
4-[(7-chloroquinolin-4-yl)amino]-2-(diethylaminomethyl)phenol;dihydrochloride

>  <PUBCHEM_IUPAC_SYSTEMATIC_NAME>
4-[(7-chloranylquinolin-4-yl)amino]-2-(diethylaminomethyl)phenol;dihydrochloride

>  <PUBCHEM_IUPAC_TRADITIONAL_NAME>
4-[(7-chloro-4-quinolyl)amino]-2-(diethylaminomethyl)phenol;dihydrochloride

>  <PUBCHEM_IUPAC_INCHI>
InChI=1S/C20H22ClN3O.2ClH/c1-3-24(4-2)13-14-11-16(6-8-20(14)25)23-18-9-10-22-19-12-15(21)5-7-17(18)19;;/h5-12,25H,3-4,13H2,1-2H3,(H,22,23);2*1H

>  <PUBCHEM_IUPAC_INCHIKEY>
ROEBJVHPINPMKL-UHFFFAOYSA-N

>  <PUBCHEM_EXACT_MASS>
427.098495

>  <PUBCHEM_MOLECULAR_FORMULA>
C20H24Cl3N3O

>  <PUBCHEM_MOLECULAR_WEIGHT>
428.8

>  <PUBCHEM_OPENEYE_CAN_SMILES>
CCN(CC)CC1=C(C=CC(=C1)NC2=C3C=CC(=CC3=NC=C2)Cl)O.Cl.Cl

>  <PUBCHEM_OPENEYE_ISO_SMILES>
CCN(CC)CC1=C(C=CC(=C1)NC2=C3C=CC(=CC3=NC=C2)Cl)O.Cl.Cl

>  <PUBCHEM_CACTVS_TPSA>
48.4

>  <PUBCHEM_MONOISOTOPIC_WEIGHT>
427.098495

>  <PUBCHEM_TOTAL_CHARGE>
0

>  <PUBCHEM_HEAVY_ATOM_COUNT>
27

>  <PUBCHEM_ATOM_DEF_STEREO_COUNT>
0

>  <PUBCHEM_ATOM_UDEF_STEREO_COUNT>
0

>  <PUBCHEM_BOND_DEF_STEREO_COUNT>
0

>  <PUBCHEM_BOND_UDEF_STEREO_COUNT>
0

>  <PUBCHEM_ISOTOPIC_ATOM_COUNT>
0

>  <PUBCHEM_COMPONENT_COUNT>
3

>  <PUBCHEM_CACTVS_TAUTO_COUNT>
-1

>  <PUBCHEM_COORDINATE_TYPE>
1
5
255

>  <PUBCHEM_BONDANNOTATIONS>
12  13  8
13  17  8
14  18  8
17  18  8
19  20  8
19  22  8
20  21  8
20  23  8
21  24  8
22  25  8
23  26  8
24  27  8
26  27  8
7  21  8
7  25  8
9  12  8
9  14  8

$$$$
