62978
  -OEChem-05242017482D

 67 70  0     1  0  0  0  0  0999 V2000
    7.1001    1.0369    0.0000 S   0  0  0  0  0  0  0  0  0  0  0  0
   10.9984    8.7333    0.0000 O   0  0  0  0  0  0  0  0  0  0  0  0
   10.9984    6.7333    0.0000 O   0  0  0  0  0  0  0  0  0  0  0  0
    9.2663    9.7333    0.0000 O   0  0  0  0  0  0  0  0  0  0  0  0
    1.4061    7.2574    0.0000 O   0  0  0  0  0  0  0  0  0  0  0  0
    1.4061    5.2091    0.0000 O   0  0  0  0  0  0  0  0  0  0  0  0
    7.9661    1.5369    0.0000 O   0  0  0  0  0  0  0  0  0  0  0  0
    6.6001    1.9030    0.0000 O   0  0  0  0  0  0  0  0  0  0  0  0
    7.6001    0.1709    0.0000 O   0  0  0  0  0  0  0  0  0  0  0  0
    8.4003    8.2333    0.0000 N   0  0  0  0  0  0  0  0  0  0  0  0
    6.6682    7.2333    0.0000 N   0  0  0  0  0  0  0  0  0  0  0  0
    4.9362    7.2333    0.0000 N   0  0  0  0  0  0  0  0  0  0  0  0
    5.8022    5.7333    0.0000 N   0  0  0  0  0  0  0  0  0  0  0  0
    4.9362    4.2333    0.0000 N   0  0  0  0  0  0  0  0  0  0  0  0
    7.5343    8.7333    0.0000 C   0  0  0  0  0  0  0  0  0  0  0  0
    8.4003    7.2333    0.0000 C   0  0  0  0  0  0  0  0  0  0  0  0
    6.6682    8.2333    0.0000 C   0  0  0  0  0  0  0  0  0  0  0  0
    7.5343    6.7333    0.0000 C   0  0  0  0  0  0  0  0  0  0  0  0
    9.2663    8.7333    0.0000 C   0  0  0  0  0  0  0  0  0  0  0  0
   10.1324    8.2333    0.0000 C   0  0  3  0  0  0  0  0  0  0  0  0
    5.8022    6.7333    0.0000 C   0  0  0  0  0  0  0  0  0  0  0  0
   10.1324    7.2333    0.0000 C   0  0  0  0  0  0  0  0  0  0  0  0
   11.8644    8.2333    0.0000 C   0  0  0  0  0  0  0  0  0  0  0  0
    4.0702    6.7333    0.0000 C   0  0  0  0  0  0  0  0  0  0  0  0
   11.8644    7.2333    0.0000 C   0  0  0  0  0  0  0  0  0  0  0  0
    4.0702    5.7333    0.0000 C   0  0  0  0  0  0  0  0  0  0  0  0
    4.9362    5.2333    0.0000 C   0  0  0  0  0  0  0  0  0  0  0  0
   12.7583    8.7679    0.0000 C   0  0  0  0  0  0  0  0  0  0  0  0
    3.1762    7.2679    0.0000 C   0  0  0  0  0  0  0  0  0  0  0  0
    3.1762    5.1986    0.0000 C   0  0  0  0  0  0  0  0  0  0  0  0
   12.7583    6.6986    0.0000 C   0  0  0  0  0  0  0  0  0  0  0  0
    2.2702    6.7541    0.0000 C   0  0  0  0  0  0  0  0  0  0  0  0
    2.2702    5.7124    0.0000 C   0  0  0  0  0  0  0  0  0  0  0  0
   13.6644    8.2541    0.0000 C   0  0  0  0  0  0  0  0  0  0  0  0
   13.6644    7.2124    0.0000 C   0  0  0  0  0  0  0  0  0  0  0  0
    1.4099    8.2574    0.0000 C   0  0  0  0  0  0  0  0  0  0  0  0
    0.5381    5.7058    0.0000 C   0  0  0  0  0  0  0  0  0  0  0  0
    6.2340    0.5369    0.0000 C   0  0  0  0  0  0  0  0  0  0  0  0
    7.9328    9.2082    0.0000 H   0  0  0  0  0  0  0  0  0  0  0  0
    7.1358    9.2082    0.0000 H   0  0  0  0  0  0  0  0  0  0  0  0
    8.6124    6.6507    0.0000 H   0  0  0  0  0  0  0  0  0  0  0  0
    9.0109    7.3409    0.0000 H   0  0  0  0  0  0  0  0  0  0  0  0
    6.4562    8.8159    0.0000 H   0  0  0  0  0  0  0  0  0  0  0  0
    6.0577    8.1256    0.0000 H   0  0  0  0  0  0  0  0  0  0  0  0
    7.1358    6.2583    0.0000 H   0  0  0  0  0  0  0  0  0  0  0  0
    7.9328    6.2583    0.0000 H   0  0  0  0  0  0  0  0  0  0  0  0
   10.1324    8.8533    0.0000 H   0  0  0  0  0  0  0  0  0  0  0  0
    9.5218    7.3409    0.0000 H   0  0  0  0  0  0  0  0  0  0  0  0
    9.9203    6.6507    0.0000 H   0  0  0  0  0  0  0  0  0  0  0  0
   12.7512    9.3879    0.0000 H   0  0  0  0  0  0  0  0  0  0  0  0
    3.1834    7.8879    0.0000 H   0  0  0  0  0  0  0  0  0  0  0  0
    3.1834    4.5786    0.0000 H   0  0  0  0  0  0  0  0  0  0  0  0
   12.7512    6.0786    0.0000 H   0  0  0  0  0  0  0  0  0  0  0  0
   14.2001    8.5662    0.0000 H   0  0  0  0  0  0  0  0  0  0  0  0
   14.2001    6.9004    0.0000 H   0  0  0  0  0  0  0  0  0  0  0  0
    5.4731    3.9233    0.0000 H   0  0  0  0  0  0  0  0  0  0  0  0
    4.3993    3.9233    0.0000 H   0  0  0  0  0  0  0  0  0  0  0  0
    2.0299    8.2550    0.0000 H   0  0  0  0  0  0  0  0  0  0  0  0
    1.4123    8.8774    0.0000 H   0  0  0  0  0  0  0  0  0  0  0  0
    0.7899    8.2598    0.0000 H   0  0  0  0  0  0  0  0  0  0  0  0
    0.8461    6.2439    0.0000 H   0  0  0  0  0  0  0  0  0  0  0  0
    0.0000    6.0137    0.0000 H   0  0  0  0  0  0  0  0  0  0  0  0
    0.2302    5.1676    0.0000 H   0  0  0  0  0  0  0  0  0  0  0  0
    5.9240    1.0739    0.0000 H   0  0  0  0  0  0  0  0  0  0  0  0
    5.6971    0.2269    0.0000 H   0  0  0  0  0  0  0  0  0  0  0  0
    6.5441    0.0000    0.0000 H   0  0  0  0  0  0  0  0  0  0  0  0
    8.5030    1.2269    0.0000 H   0  0  0  0  0  0  0  0  0  0  0  0
  1  7  1  0  0  0  0
  1  8  2  0  0  0  0
  1  9  2  0  0  0  0
  1 38  1  0  0  0  0
  2 20  1  0  0  0  0
  2 23  1  0  0  0  0
  3 22  1  0  0  0  0
  3 25  1  0  0  0  0
  4 19  2  0  0  0  0
  5 32  1  0  0  0  0
  5 36  1  0  0  0  0
  6 33  1  0  0  0  0
  6 37  1  0  0  0  0
  7 67  1  0  0  0  0
 10 15  1  0  0  0  0
 10 16  1  0  0  0  0
 10 19  1  0  0  0  0
 11 17  1  0  0  0  0
 11 18  1  0  0  0  0
 11 21  1  0  0  0  0
 12 21  2  0  0  0  0
 12 24  1  0  0  0  0
 13 21  1  0  0  0  0
 13 27  2  0  0  0  0
 14 27  1  0  0  0  0
 14 56  1  0  0  0  0
 14 57  1  0  0  0  0
 15 17  1  0  0  0  0
 15 39  1  0  0  0  0
 15 40  1  0  0  0  0
 16 18  1  0  0  0  0
 16 41  1  0  0  0  0
 16 42  1  0  0  0  0
 17 43  1  0  0  0  0
 17 44  1  0  0  0  0
 18 45  1  0  0  0  0
 18 46  1  0  0  0  0
 19 20  1  0  0  0  0
 20 22  1  0  0  0  0
 20 47  1  0  0  0  0
 22 48  1  0  0  0  0
 22 49  1  0  0  0  0
 23 25  1  0  0  0  0
 23 28  2  0  0  0  0
 24 26  1  0  0  0  0
 24 29  2  0  0  0  0
 25 31  2  0  0  0  0
 26 27  1  0  0  0  0
 26 30  2  0  0  0  0
 28 34  1  0  0  0  0
 28 50  1  0  0  0  0
 29 32  1  0  0  0  0
 29 51  1  0  0  0  0
 30 33  1  0  0  0  0
 30 52  1  0  0  0  0
 31 35  1  0  0  0  0
 31 53  1  0  0  0  0
 32 33  2  0  0  0  0
 34 35  2  0  0  0  0
 34 54  1  0  0  0  0
 35 55  1  0  0  0  0
 36 58  1  0  0  0  0
 36 59  1  0  0  0  0
 36 60  1  0  0  0  0
 37 61  1  0  0  0  0
 37 62  1  0  0  0  0
 37 63  1  0  0  0  0
 38 64  1  0  0  0  0
 38 65  1  0  0  0  0
 38 66  1  0  0  0  0
M  END
> <PUBCHEM_COMPOUND_CID>
62978

> <PUBCHEM_COMPOUND_CANONICALIZED>
1

> <PUBCHEM_CACTVS_COMPLEXITY>
770

> <PUBCHEM_CACTVS_HBOND_ACCEPTOR>
12

> <PUBCHEM_CACTVS_HBOND_DONOR>
2

> <PUBCHEM_CACTVS_ROTATABLE_BOND>
4

> <PUBCHEM_CACTVS_SUBSKEYS>
AAADceB7vABAAAAAAAAAAAAAAAAAAAAAAAA8eJECAAAAAACx9AAAHgQQCAAADBzhngaz9vdIFIKoAydydHKCiCkhIqAJmCF+7JiPbqbE+d+XPCru5hva6Cew0BMOIEABAgACQABAgAIEAASAAAAAAAAAAA==

> <PUBCHEM_IUPAC_OPENEYE_NAME>
[4-(4-amino-6,7-dimethoxy-quinazolin-2-yl)piperazin-1-yl]-(2,3-dihydro-1,4-benzodioxin-3-yl)methanone;methanesulfonic acid

> <PUBCHEM_IUPAC_CAS_NAME>
[4-(4-amino-6,7-dimethoxy-2-quinazolinyl)-1-piperazinyl]-(2,3-dihydro-1,4-benzodioxin-3-yl)methanone;methanesulfonic acid

> <PUBCHEM_IUPAC_NAME_MARKUP>
[4-(4-amino-6,7-dimethoxyquinazolin-2-yl)piperazin-1-yl]-(2,3-dihydro-1,4-benzodioxin-3-yl)methanone;methanesulfonic acid

> <PUBCHEM_IUPAC_NAME>
[4-(4-amino-6,7-dimethoxyquinazolin-2-yl)piperazin-1-yl]-(2,3-dihydro-1,4-benzodioxin-3-yl)methanone;methanesulfonic acid

> <PUBCHEM_IUPAC_SYSTEMATIC_NAME>
[4-(4-azanyl-6,7-dimethoxy-quinazolin-2-yl)piperazin-1-yl]-(2,3-dihydro-1,4-benzodioxin-3-yl)methanone;methanesulfonic acid

> <PUBCHEM_IUPAC_TRADITIONAL_NAME>
[4-(4-amino-6,7-dimethoxy-quinazolin-2-yl)piperazino]-(2,3-dihydro-1,4-benzodioxin-3-yl)methanone;mesylic acid

> <PUBCHEM_IUPAC_INCHI>
InChI=1S/C23H25N5O5.CH4O3S/c1-30-18-11-14-15(12-19(18)31-2)25-23(26-21(14)24)28-9-7-27(8-10-28)22(29)20-13-32-16-5-3-4-6-17(16)33-20;1-5(2,3)4/h3-6,11-12,20H,7-10,13H2,1-2H3,(H2,24,25,26);1H3,(H,2,3,4)

> <PUBCHEM_IUPAC_INCHIKEY>
VJECBOKJABCYMF-UHFFFAOYSA-N

> <PUBCHEM_EXACT_MASS>
547.173684

> <PUBCHEM_MOLECULAR_FORMULA>
C24H29N5O8S

> <PUBCHEM_MOLECULAR_WEIGHT>
547.6

> <PUBCHEM_OPENEYE_CAN_SMILES>
COC1=C(C=C2C(=C1)C(=NC(=N2)N3CCN(CC3)C(=O)C4COC5=CC=CC=C5O4)N)OC.CS(=O)(=O)O

> <PUBCHEM_OPENEYE_ISO_SMILES>
COC1=C(C=C2C(=C1)C(=NC(=N2)N3CCN(CC3)C(=O)C4COC5=CC=CC=C5O4)N)OC.CS(=O)(=O)O

> <PUBCHEM_CACTVS_TPSA>
175

> <PUBCHEM_MONOISOTOPIC_WEIGHT>
547.173684

> <PUBCHEM_TOTAL_CHARGE>
0

> <PUBCHEM_HEAVY_ATOM_COUNT>
38

> <PUBCHEM_ATOM_DEF_STEREO_COUNT>
0

> <PUBCHEM_ATOM_UDEF_STEREO_COUNT>
1

> <PUBCHEM_BOND_DEF_STEREO_COUNT>
0

> <PUBCHEM_BOND_UDEF_STEREO_COUNT>
0

> <PUBCHEM_ISOTOPIC_ATOM_COUNT>
0

> <PUBCHEM_COMPONENT_COUNT>
2

> <PUBCHEM_CACTVS_TAUTO_COUNT>
-1

> <PUBCHEM_COORDINATE_TYPE>
1
5
255

> <PUBCHEM_BONDANNOTATIONS>
12  21  8
12  24  8
13  21  8
13  27  8
20  19  3
23  25  8
23  28  8
24  26  8
24  29  8
25  31  8
26  27  8
26  30  8
28  34  8
29  32  8
30  33  8
31  35  8
32  33  8
34  35  8

$$$$
