68539
  -OEChem-05242017482D

 47 48  0     0  0  0  0  0  0999 V2000
    0.0931    3.9501    0.0000 Cl  0  0  0  0  0  0  0  0  0  0  0  0
    2.9747    9.4498    0.0000 Cl  0  0  0  0  0  0  0  0  0  0  0  0
    3.4747    4.6200    0.0000 N   0  0  0  0  0  0  0  0  0  0  0  0
    5.2068    1.6200    0.0000 N   0  0  0  0  0  0  0  0  0  0  0  0
    3.4747    3.6200    0.0000 C   0  0  0  0  0  0  0  0  0  0  0  0
    2.5738    5.0539    0.0000 C   0  0  0  0  0  0  0  0  0  0  0  0
    4.3757    5.0539    0.0000 C   0  0  0  0  0  0  0  0  0  0  0  0
    2.9747    6.8107    0.0000 C   0  0  0  0  0  0  0  0  0  0  0  0
    3.9748    6.8106    0.0000 C   0  0  0  0  0  0  0  0  0  0  0  0
    2.3513    6.0288    0.0000 C   0  0  0  0  0  0  0  0  0  0  0  0
    4.5982    6.0288    0.0000 C   0  0  0  0  0  0  0  0  0  0  0  0
    4.3408    3.1200    0.0000 C   0  0  0  0  0  0  0  0  0  0  0  0
    4.3407    2.1200    0.0000 C   0  0  0  0  0  0  0  0  0  0  0  0
    1.8212    4.3337    0.0000 C   0  0  0  0  0  0  0  0  0  0  0  0
    5.1283    4.3337    0.0000 C   0  0  0  0  0  0  0  0  0  0  0  0
    1.3608    6.3512    0.0000 C   0  0  0  0  0  0  0  0  0  0  0  0
    5.5887    6.3511    0.0000 C   0  0  0  0  0  0  0  0  0  0  0  0
    0.8235    4.6331    0.0000 C   0  0  0  0  0  0  0  0  0  0  0  0
    6.1259    4.6330    0.0000 C   0  0  0  0  0  0  0  0  0  0  0  0
    0.5917    5.6486    0.0000 C   0  0  0  0  0  0  0  0  0  0  0  0
    6.3578    5.6486    0.0000 C   0  0  0  0  0  0  0  0  0  0  0  0
    5.2068    0.6200    0.0000 C   0  0  0  0  0  0  0  0  0  0  0  0
    6.0728    2.1200    0.0000 C   0  0  0  0  0  0  0  0  0  0  0  0
    2.8642    3.7277    0.0000 H   0  0  0  0  0  0  0  0  0  0  0  0
    3.2627    3.0374    0.0000 H   0  0  0  0  0  0  0  0  0  0  0  0
    3.1127    7.4151    0.0000 H   0  0  0  0  0  0  0  0  0  0  0  0
    2.4162    7.0797    0.0000 H   0  0  0  0  0  0  0  0  0  0  0  0
    4.5334    7.0797    0.0000 H   0  0  0  0  0  0  0  0  0  0  0  0
    3.8368    7.4151    0.0000 H   0  0  0  0  0  0  0  0  0  0  0  0
    4.9513    3.0123    0.0000 H   0  0  0  0  0  0  0  0  0  0  0  0
    4.5528    3.7026    0.0000 H   0  0  0  0  0  0  0  0  0  0  0  0
    3.7302    2.2277    0.0000 H   0  0  0  0  0  0  0  0  0  0  0  0
    4.1287    1.5374    0.0000 H   0  0  0  0  0  0  0  0  0  0  0  0
    1.9662    3.7309    0.0000 H   0  0  0  0  0  0  0  0  0  0  0  0
    4.9833    3.7309    0.0000 H   0  0  0  0  0  0  0  0  0  0  0  0
    1.2298    6.9572    0.0000 H   0  0  0  0  0  0  0  0  0  0  0  0
    5.7197    6.9572    0.0000 H   0  0  0  0  0  0  0  0  0  0  0  0
    6.5788    4.2096    0.0000 H   0  0  0  0  0  0  0  0  0  0  0  0
    0.0000    5.8336    0.0000 H   0  0  0  0  0  0  0  0  0  0  0  0
    6.9495    5.8336    0.0000 H   0  0  0  0  0  0  0  0  0  0  0  0
    4.5868    0.6200    0.0000 H   0  0  0  0  0  0  0  0  0  0  0  0
    5.2068    0.0000    0.0000 H   0  0  0  0  0  0  0  0  0  0  0  0
    5.8268    0.6200    0.0000 H   0  0  0  0  0  0  0  0  0  0  0  0
    6.3828    1.5831    0.0000 H   0  0  0  0  0  0  0  0  0  0  0  0
    6.6097    2.4300    0.0000 H   0  0  0  0  0  0  0  0  0  0  0  0
    5.7628    2.6569    0.0000 H   0  0  0  0  0  0  0  0  0  0  0  0
    3.9748    9.4498    0.0000 H   0  0  0  0  0  0  0  0  0  0  0  0
  1 18  1  0  0  0  0
  2 47  1  0  0  0  0
  3  5  1  0  0  0  0
  3  6  1  0  0  0  0
  3  7  1  0  0  0  0
  4 13  1  0  0  0  0
  4 22  1  0  0  0  0
  4 23  1  0  0  0  0
  5 12  1  0  0  0  0
  5 24  1  0  0  0  0
  5 25  1  0  0  0  0
  6 10  2  0  0  0  0
  6 14  1  0  0  0  0
  7 11  1  0  0  0  0
  7 15  2  0  0  0  0
  8  9  1  0  0  0  0
  8 10  1  0  0  0  0
  8 26  1  0  0  0  0
  8 27  1  0  0  0  0
  9 11  1  0  0  0  0
  9 28  1  0  0  0  0
  9 29  1  0  0  0  0
 10 16  1  0  0  0  0
 11 17  2  0  0  0  0
 12 13  1  0  0  0  0
 12 30  1  0  0  0  0
 12 31  1  0  0  0  0
 13 32  1  0  0  0  0
 13 33  1  0  0  0  0
 14 18  2  0  0  0  0
 14 34  1  0  0  0  0
 15 19  1  0  0  0  0
 15 35  1  0  0  0  0
 16 20  2  0  0  0  0
 16 36  1  0  0  0  0
 17 21  1  0  0  0  0
 17 37  1  0  0  0  0
 18 20  1  0  0  0  0
 19 21  2  0  0  0  0
 19 38  1  0  0  0  0
 20 39  1  0  0  0  0
 21 40  1  0  0  0  0
 22 41  1  0  0  0  0
 22 42  1  0  0  0  0
 22 43  1  0  0  0  0
 23 44  1  0  0  0  0
 23 45  1  0  0  0  0
 23 46  1  0  0  0  0
M  END
> <PUBCHEM_COMPOUND_CID>
68539

> <PUBCHEM_COMPOUND_CANONICALIZED>
1

> <PUBCHEM_CACTVS_COMPLEXITY>
346

> <PUBCHEM_CACTVS_HBOND_ACCEPTOR>
2

> <PUBCHEM_CACTVS_HBOND_DONOR>
1

> <PUBCHEM_CACTVS_ROTATABLE_BOND>
4

> <PUBCHEM_CACTVS_SUBSKEYS>
AAADceB7AAAGAAAAAAAAAAAAAAAAAAAAAAAwYAAABYAAAAABQAAAHAIAAAAADArBGCQywIMAAACAAiRCQACCAAAhBwAIiAAIZogIIGLB05GEIAhggADIyAcQgMAOBAAAAAICAAAIAAAABAQAAAAAAAAAAA==

> <PUBCHEM_IUPAC_OPENEYE_NAME>
3-(2-chloro-5,6-dihydrobenzo[b][1]benzazepin-11-yl)-N,N-dimethyl-propan-1-amine;hydrochloride

> <PUBCHEM_IUPAC_CAS_NAME>
3-(2-chloro-5,6-dihydrobenzo[b][1]benzazepin-11-yl)-N,N-dimethyl-1-propanamine;hydrochloride

> <PUBCHEM_IUPAC_NAME_MARKUP>
3-(2-chloro-5,6-dihydrobenzo[b][1]benzazepin-11-yl)-<I>N</I>,<I>N</I>-dimethylpropan-1-amine;hydrochloride

> <PUBCHEM_IUPAC_NAME>
3-(2-chloro-5,6-dihydrobenzo[b][1]benzazepin-11-yl)-N,N-dimethylpropan-1-amine;hydrochloride

> <PUBCHEM_IUPAC_SYSTEMATIC_NAME>
3-(2-chloranyl-5,6-dihydrobenzo[b][1]benzazepin-11-yl)-N,N-dimethyl-propan-1-amine;hydrochloride

> <PUBCHEM_IUPAC_TRADITIONAL_NAME>
3-(2-chloro-5,6-dihydrobenzo[b][1]benzazepin-11-yl)propyl-dimethyl-amine;hydrochloride

> <PUBCHEM_IUPAC_INCHI>
InChI=1S/C19H23ClN2.ClH/c1-21(2)12-5-13-22-18-7-4-3-6-15(18)8-9-16-10-11-17(20)14-19(16)22;/h3-4,6-7,10-11,14H,5,8-9,12-13H2,1-2H3;1H

> <PUBCHEM_IUPAC_INCHIKEY>
WIMWMKZEIBHDTH-UHFFFAOYSA-N

> <PUBCHEM_EXACT_MASS>
350.131654

> <PUBCHEM_MOLECULAR_FORMULA>
C19H24Cl2N2

> <PUBCHEM_MOLECULAR_WEIGHT>
351.3

> <PUBCHEM_OPENEYE_CAN_SMILES>
CN(C)CCCN1C2=CC=CC=C2CCC3=C1C=C(C=C3)Cl.Cl

> <PUBCHEM_OPENEYE_ISO_SMILES>
CN(C)CCCN1C2=CC=CC=C2CCC3=C1C=C(C=C3)Cl.Cl

> <PUBCHEM_CACTVS_TPSA>
6.5

> <PUBCHEM_MONOISOTOPIC_WEIGHT>
350.131654

> <PUBCHEM_TOTAL_CHARGE>
0

> <PUBCHEM_HEAVY_ATOM_COUNT>
23

> <PUBCHEM_ATOM_DEF_STEREO_COUNT>
0

> <PUBCHEM_ATOM_UDEF_STEREO_COUNT>
0

> <PUBCHEM_BOND_DEF_STEREO_COUNT>
0

> <PUBCHEM_BOND_UDEF_STEREO_COUNT>
0

> <PUBCHEM_ISOTOPIC_ATOM_COUNT>
0

> <PUBCHEM_COMPONENT_COUNT>
2

> <PUBCHEM_CACTVS_TAUTO_COUNT>
-1

> <PUBCHEM_COORDINATE_TYPE>
1
5
255

> <PUBCHEM_BONDANNOTATIONS>
10  16  8
11  17  8
14  18  8
15  19  8
16  20  8
17  21  8
18  20  8
19  21  8
6  10  8
6  14  8
7  11  8
7  15  8

$$$$
