71420
  -OEChem-05242017482D

 69 71  0     0  0  0  0  0  0999 V2000
    9.4860   11.5841    0.0000 Cl  0  0  0  0  0  0  0  0  0  0  0  0
    0.0000    5.5420    0.0000 Cl  0  0  0  0  0  0  0  0  0  0  0  0
    6.9860    8.9860    0.0000 O   0  0  0  0  0  0  0  0  0  0  0  0
    8.1200    4.4860    0.0000 O   0  0  0  0  0  0  0  0  0  0  0  0
    7.4860    6.1200    0.0000 N   0  0  0  0  0  0  0  0  0  0  0  0
    8.5597    3.2780    0.0000 N   0  0  0  0  0  0  0  0  0  0  0  0
    7.4860    8.1200    0.0000 C   0  0  0  0  0  0  0  0  0  0  0  0
    6.6200    7.6200    0.0000 C   0  0  0  0  0  0  0  0  0  0  0  0
    8.3520    7.6200    0.0000 C   0  0  0  0  0  0  0  0  0  0  0  0
    6.6200    6.6200    0.0000 C   0  0  0  0  0  0  0  0  0  0  0  0
    8.3520    6.6200    0.0000 C   0  0  0  0  0  0  0  0  0  0  0  0
    7.4860    5.1200    0.0000 C   0  0  0  0  0  0  0  0  0  0  0  0
    6.6200    4.6200    0.0000 C   0  0  0  0  0  0  0  0  0  0  0  0
    6.6200    3.6200    0.0000 C   0  0  0  0  0  0  0  0  0  0  0  0
    7.9860    8.9860    0.0000 C   0  0  0  0  0  0  0  0  0  0  0  0
    6.6200    2.6200    0.0000 C   0  0  0  0  0  0  0  0  0  0  0  0
    5.6200    3.6200    0.0000 C   0  0  0  0  0  0  0  0  0  0  0  0
    7.6200    3.6200    0.0000 C   0  0  0  0  0  0  0  0  0  0  0  0
    7.4860    9.8520    0.0000 C   0  0  0  0  0  0  0  0  0  0  0  0
    8.9860    8.9860    0.0000 C   0  0  0  0  0  0  0  0  0  0  0  0
    5.7540    2.1200    0.0000 C   0  0  0  0  0  0  0  0  0  0  0  0
    5.1200    4.4860    0.0000 C   0  0  0  0  0  0  0  0  0  0  0  0
    7.4860    2.1200    0.0000 C   0  0  0  0  0  0  0  0  0  0  0  0
    5.1200    2.7540    0.0000 C   0  0  0  0  0  0  0  0  0  0  0  0
    7.9860   10.7181    0.0000 C   0  0  0  0  0  0  0  0  0  0  0  0
    9.4860    9.8520    0.0000 C   0  0  0  0  0  0  0  0  0  0  0  0
    8.9860   10.7181    0.0000 C   0  0  0  0  0  0  0  0  0  0  0  0
    5.7540    1.1200    0.0000 C   0  0  0  0  0  0  0  0  0  0  0  0
    4.1200    4.4860    0.0000 C   0  0  0  0  0  0  0  0  0  0  0  0
    7.4860    1.1200    0.0000 C   0  0  0  0  0  0  0  0  0  0  0  0
    4.1200    2.7540    0.0000 C   0  0  0  0  0  0  0  0  0  0  0  0
    9.3257    3.9208    0.0000 C   0  0  0  0  0  0  0  0  0  0  0  0
    8.7334    2.2932    0.0000 C   0  0  0  0  0  0  0  0  0  0  0  0
    6.6200    0.6200    0.0000 C   0  0  0  0  0  0  0  0  0  0  0  0
    3.6200    3.6200    0.0000 C   0  0  0  0  0  0  0  0  0  0  0  0
    6.4079    8.2026    0.0000 H   0  0  0  0  0  0  0  0  0  0  0  0
    6.0094    7.5123    0.0000 H   0  0  0  0  0  0  0  0  0  0  0  0
    8.9626    7.5123    0.0000 H   0  0  0  0  0  0  0  0  0  0  0  0
    8.5641    8.2026    0.0000 H   0  0  0  0  0  0  0  0  0  0  0  0
    6.0094    6.7277    0.0000 H   0  0  0  0  0  0  0  0  0  0  0  0
    6.4079    6.0374    0.0000 H   0  0  0  0  0  0  0  0  0  0  0  0
    8.5641    6.0374    0.0000 H   0  0  0  0  0  0  0  0  0  0  0  0
    8.9626    6.7277    0.0000 H   0  0  0  0  0  0  0  0  0  0  0  0
    7.6981    4.5374    0.0000 H   0  0  0  0  0  0  0  0  0  0  0  0
    8.0966    5.2277    0.0000 H   0  0  0  0  0  0  0  0  0  0  0  0
    6.4079    5.2026    0.0000 H   0  0  0  0  0  0  0  0  0  0  0  0
    6.0094    4.5123    0.0000 H   0  0  0  0  0  0  0  0  0  0  0  0
    6.3660    8.9860    0.0000 H   0  0  0  0  0  0  0  0  0  0  0  0
    6.8660    9.8520    0.0000 H   0  0  0  0  0  0  0  0  0  0  0  0
    9.2960    8.4491    0.0000 H   0  0  0  0  0  0  0  0  0  0  0  0
    5.2170    2.4300    0.0000 H   0  0  0  0  0  0  0  0  0  0  0  0
    5.4300    5.0230    0.0000 H   0  0  0  0  0  0  0  0  0  0  0  0
    8.0230    2.4300    0.0000 H   0  0  0  0  0  0  0  0  0  0  0  0
    5.4300    2.2170    0.0000 H   0  0  0  0  0  0  0  0  0  0  0  0
    7.6760   11.2550    0.0000 H   0  0  0  0  0  0  0  0  0  0  0  0
   10.1060    9.8520    0.0000 H   0  0  0  0  0  0  0  0  0  0  0  0
    5.2170    0.8100    0.0000 H   0  0  0  0  0  0  0  0  0  0  0  0
    3.8100    5.0230    0.0000 H   0  0  0  0  0  0  0  0  0  0  0  0
    8.0230    0.8100    0.0000 H   0  0  0  0  0  0  0  0  0  0  0  0
    3.8100    2.2170    0.0000 H   0  0  0  0  0  0  0  0  0  0  0  0
    9.7243    3.4458    0.0000 H   0  0  0  0  0  0  0  0  0  0  0  0
    9.8007    4.3193    0.0000 H   0  0  0  0  0  0  0  0  0  0  0  0
    8.9272    4.3957    0.0000 H   0  0  0  0  0  0  0  0  0  0  0  0
    8.1228    2.1855    0.0000 H   0  0  0  0  0  0  0  0  0  0  0  0
    8.8411    1.6827    0.0000 H   0  0  0  0  0  0  0  0  0  0  0  0
    9.3440    2.4010    0.0000 H   0  0  0  0  0  0  0  0  0  0  0  0
    6.6200    0.0000    0.0000 H   0  0  0  0  0  0  0  0  0  0  0  0
    3.0000    3.6200    0.0000 H   0  0  0  0  0  0  0  0  0  0  0  0
    1.0000    5.5420    0.0000 H   0  0  0  0  0  0  0  0  0  0  0  0
  1 27  1  0  0  0  0
  2 69  1  0  0  0  0
  3  7  1  0  0  0  0
  3 48  1  0  0  0  0
  4 18  2  0  0  0  0
  5 10  1  0  0  0  0
  5 11  1  0  0  0  0
  5 12  1  0  0  0  0
  6 18  1  0  0  0  0
  6 32  1  0  0  0  0
  6 33  1  0  0  0  0
  7  8  1  0  0  0  0
  7  9  1  0  0  0  0
  7 15  1  0  0  0  0
  8 10  1  0  0  0  0
  8 36  1  0  0  0  0
  8 37  1  0  0  0  0
  9 11  1  0  0  0  0
  9 38  1  0  0  0  0
  9 39  1  0  0  0  0
 10 40  1  0  0  0  0
 10 41  1  0  0  0  0
 11 42  1  0  0  0  0
 11 43  1  0  0  0  0
 12 13  1  0  0  0  0
 12 44  1  0  0  0  0
 12 45  1  0  0  0  0
 13 14  1  0  0  0  0
 13 46  1  0  0  0  0
 13 47  1  0  0  0  0
 14 16  1  0  0  0  0
 14 17  1  0  0  0  0
 14 18  1  0  0  0  0
 15 19  2  0  0  0  0
 15 20  1  0  0  0  0
 16 21  2  0  0  0  0
 16 23  1  0  0  0  0
 17 22  2  0  0  0  0
 17 24  1  0  0  0  0
 19 25  1  0  0  0  0
 19 49  1  0  0  0  0
 20 26  2  0  0  0  0
 20 50  1  0  0  0  0
 21 28  1  0  0  0  0
 21 51  1  0  0  0  0
 22 29  1  0  0  0  0
 22 52  1  0  0  0  0
 23 30  2  0  0  0  0
 23 53  1  0  0  0  0
 24 31  2  0  0  0  0
 24 54  1  0  0  0  0
 25 27  2  0  0  0  0
 25 55  1  0  0  0  0
 26 27  1  0  0  0  0
 26 56  1  0  0  0  0
 28 34  2  0  0  0  0
 28 57  1  0  0  0  0
 29 35  2  0  0  0  0
 29 58  1  0  0  0  0
 30 34  1  0  0  0  0
 30 59  1  0  0  0  0
 31 35  1  0  0  0  0
 31 60  1  0  0  0  0
 32 61  1  0  0  0  0
 32 62  1  0  0  0  0
 32 63  1  0  0  0  0
 33 64  1  0  0  0  0
 33 65  1  0  0  0  0
 33 66  1  0  0  0  0
 34 67  1  0  0  0  0
 35 68  1  0  0  0  0
M  END
> <PUBCHEM_COMPOUND_CID>
71420

> <PUBCHEM_COMPOUND_CANONICALIZED>
1

> <PUBCHEM_CACTVS_COMPLEXITY>
623

> <PUBCHEM_CACTVS_HBOND_ACCEPTOR>
3

> <PUBCHEM_CACTVS_HBOND_DONOR>
2

> <PUBCHEM_CACTVS_ROTATABLE_BOND>
7

> <PUBCHEM_CACTVS_SUBSKEYS>
AAADcfB7MAAGAAAAAAAAAAAAAAAAAAAAAAA8YMEAAAAAAAABUAAAHgIACAAADkbBmCQyAIMAAgCIAiFSEAACAAAgBQAIiAEICogIJjKBlxGEcAAmwgGImAecyOCPhAAAAAAAAAAIAAAAAAAAAAAAAAAAAA==

> <PUBCHEM_IUPAC_OPENEYE_NAME>
4-[4-(4-chlorophenyl)-4-hydroxy-1-piperidyl]-N,N-dimethyl-2,2-diphenyl-butanamide;hydrochloride

> <PUBCHEM_IUPAC_CAS_NAME>
4-[4-(4-chlorophenyl)-4-hydroxy-1-piperidinyl]-N,N-dimethyl-2,2-diphenylbutanamide;hydrochloride

> <PUBCHEM_IUPAC_NAME_MARKUP>
4-[4-(4-chlorophenyl)-4-hydroxypiperidin-1-yl]-<I>N</I>,<I>N</I>-dimethyl-2,2-diphenylbutanamide;hydrochloride

> <PUBCHEM_IUPAC_NAME>
4-[4-(4-chlorophenyl)-4-hydroxypiperidin-1-yl]-N,N-dimethyl-2,2-diphenylbutanamide;hydrochloride

> <PUBCHEM_IUPAC_SYSTEMATIC_NAME>
4-[4-(4-chlorophenyl)-4-oxidanyl-piperidin-1-yl]-N,N-dimethyl-2,2-diphenyl-butanamide;hydrochloride

> <PUBCHEM_IUPAC_TRADITIONAL_NAME>
4-[4-(4-chlorophenyl)-4-hydroxy-piperidino]-N,N-dimethyl-2,2-diphenyl-butyramide;hydrochloride

> <PUBCHEM_IUPAC_INCHI>
InChI=1S/C29H33ClN2O2.ClH/c1-31(2)27(33)29(24-9-5-3-6-10-24,25-11-7-4-8-12-25)19-22-32-20-17-28(34,18-21-32)23-13-15-26(30)16-14-23;/h3-16,34H,17-22H2,1-2H3;1H

> <PUBCHEM_IUPAC_INCHIKEY>
PGYPOBZJRVSMDS-UHFFFAOYSA-N

> <PUBCHEM_EXACT_MASS>
512.199734

> <PUBCHEM_MOLECULAR_FORMULA>
C29H34Cl2N2O2

> <PUBCHEM_MOLECULAR_WEIGHT>
513.5

> <PUBCHEM_OPENEYE_CAN_SMILES>
CN(C)C(=O)C(CCN1CCC(CC1)(C2=CC=C(C=C2)Cl)O)(C3=CC=CC=C3)C4=CC=CC=C4.Cl

> <PUBCHEM_OPENEYE_ISO_SMILES>
CN(C)C(=O)C(CCN1CCC(CC1)(C2=CC=C(C=C2)Cl)O)(C3=CC=CC=C3)C4=CC=CC=C4.Cl

> <PUBCHEM_CACTVS_TPSA>
43.8

> <PUBCHEM_MONOISOTOPIC_WEIGHT>
512.199734

> <PUBCHEM_TOTAL_CHARGE>
0

> <PUBCHEM_HEAVY_ATOM_COUNT>
35

> <PUBCHEM_ATOM_DEF_STEREO_COUNT>
0

> <PUBCHEM_ATOM_UDEF_STEREO_COUNT>
0

> <PUBCHEM_BOND_DEF_STEREO_COUNT>
0

> <PUBCHEM_BOND_UDEF_STEREO_COUNT>
0

> <PUBCHEM_ISOTOPIC_ATOM_COUNT>
0

> <PUBCHEM_COMPONENT_COUNT>
2

> <PUBCHEM_CACTVS_TAUTO_COUNT>
-1

> <PUBCHEM_COORDINATE_TYPE>
1
5
255

> <PUBCHEM_BONDANNOTATIONS>
15  19  8
15  20  8
16  21  8
16  23  8
17  22  8
17  24  8
19  25  8
20  26  8
21  28  8
22  29  8
23  30  8
24  31  8
25  27  8
26  27  8
28  34  8
29  35  8
30  34  8
31  35  8

$$$$
