1013959
  -OEChem-05262008443D

 37 39  0     0  0  0  0  0  0999 V2000
    6.6187   -1.1441   -0.1766 Br  0  0  0  0  0  0  0  0  0  0  0  0
   -5.6799   -0.5439    0.2726 O   0  0  0  0  0  0  0  0  0  0  0  0
    2.7102    3.0788   -1.1791 O   0  0  0  0  0  0  0  0  0  0  0  0
    2.8476    3.1429    1.0787 O   0  0  0  0  0  0  0  0  0  0  0  0
    0.5657   -1.2196    0.0356 N   0  0  0  0  0  0  0  0  0  0  0  0
    2.6199    0.0396   -0.0058 C   0  0  0  0  0  0  0  0  0  0  0  0
   -0.1075   -0.0475    0.0882 C   0  0  0  0  0  0  0  0  0  0  0  0
    1.9108   -1.1798   -0.0109 C   0  0  0  0  0  0  0  0  0  0  0  0
    1.8837    1.2307    0.0494 C   0  0  0  0  0  0  0  0  0  0  0  0
   -1.5447   -0.1748    0.1357 C   0  0  0  0  0  0  0  0  0  0  0  0
    0.4976    1.1929    0.0974 C   0  0  0  0  0  0  0  0  0  0  0  0
    4.0243    0.0441   -0.0551 C   0  0  0  0  0  0  0  0  0  0  0  0
    2.6426   -2.3628   -0.0656 C   0  0  0  0  0  0  0  0  0  0  0  0
   -2.2847   -0.2069   -1.0480 C   0  0  0  0  0  0  0  0  0  0  0  0
   -2.1993   -0.2668    1.3656 C   0  0  0  0  0  0  0  0  0  0  0  0
   -4.3250   -0.4221    0.2279 C   0  0  0  0  0  0  0  0  0  0  0  0
    4.7309   -1.1539   -0.1095 C   0  0  0  0  0  0  0  0  0  0  0  0
   -3.6733   -0.3305   -1.0020 C   0  0  0  0  0  0  0  0  0  0  0  0
   -3.5879   -0.3903    1.4117 C   0  0  0  0  0  0  0  0  0  0  0  0
    4.0388   -2.3586   -0.1147 C   0  0  0  0  0  0  0  0  0  0  0  0
    2.5145    2.5473    0.0597 C   0  0  0  0  0  0  0  0  0  0  0  0
   -6.4212    0.0571   -0.7880 C   0  0  0  0  0  0  0  0  0  0  0  0
   -7.7818    0.4683   -0.2672 C   0  0  0  0  0  0  0  0  0  0  0  0
   -0.0870    2.1072    0.1406 H   0  0  0  0  0  0  0  0  0  0  0  0
    4.5779    0.9806   -0.0515 H   0  0  0  0  0  0  0  0  0  0  0  0
    2.1238   -3.3197   -0.0709 H   0  0  0  0  0  0  0  0  0  0  0  0
   -1.7912   -0.1432   -2.0151 H   0  0  0  0  0  0  0  0  0  0  0  0
   -1.6398   -0.2443    2.2979 H   0  0  0  0  0  0  0  0  0  0  0  0
   -4.2064   -0.3795   -1.9469 H   0  0  0  0  0  0  0  0  0  0  0  0
   -4.0902   -0.4616    2.3726 H   0  0  0  0  0  0  0  0  0  0  0  0
    4.5672   -3.3077   -0.1568 H   0  0  0  0  0  0  0  0  0  0  0  0
   -5.9288    0.9603   -1.1697 H   0  0  0  0  0  0  0  0  0  0  0  0
   -6.5391   -0.6681   -1.6008 H   0  0  0  0  0  0  0  0  0  0  0  0
   -8.3829    0.9244   -1.0589 H   0  0  0  0  0  0  0  0  0  0  0  0
   -8.3206   -0.3985    0.1298 H   0  0  0  0  0  0  0  0  0  0  0  0
   -7.6800    1.1834    0.5558 H   0  0  0  0  0  0  0  0  0  0  0  0
    3.1358    3.9616   -1.1337 H   0  0  0  0  0  0  0  0  0  0  0  0
  1 17  1  0  0  0  0
  2 16  1  0  0  0  0
  2 22  1  0  0  0  0
  3 21  1  0  0  0  0
  3 37  1  0  0  0  0
  4 21  2  0  0  0  0
  5  7  2  0  0  0  0
  5  8  1  0  0  0  0
  6  8  2  0  0  0  0
  6  9  1  0  0  0  0
  6 12  1  0  0  0  0
  7 10  1  0  0  0  0
  7 11  1  0  0  0  0
  8 13  1  0  0  0  0
  9 11  2  0  0  0  0
  9 21  1  0  0  0  0
 10 14  2  0  0  0  0
 10 15  1  0  0  0  0
 11 24  1  0  0  0  0
 12 17  2  0  0  0  0
 12 25  1  0  0  0  0
 13 20  2  0  0  0  0
 13 26  1  0  0  0  0
 14 18  1  0  0  0  0
 14 27  1  0  0  0  0
 15 19  2  0  0  0  0
 15 28  1  0  0  0  0
 16 18  2  0  0  0  0
 16 19  1  0  0  0  0
 17 20  1  0  0  0  0
 18 29  1  0  0  0  0
 19 30  1  0  0  0  0
 20 31  1  0  0  0  0
 22 23  1  0  0  0  0
 22 32  1  0  0  0  0
 22 33  1  0  0  0  0
 23 34  1  0  0  0  0
 23 35  1  0  0  0  0
 23 36  1  0  0  0  0
M  END
> <PUBCHEM_COMPOUND_CID>
1013959

> <PUBCHEM_CONFORMER_RMSD>
0.8

> <PUBCHEM_CONFORMER_DIVERSEORDER>
1
2
3
4

> <PUBCHEM_MMFF94_PARTIAL_CHARGES>
29
1 -0.11
11 -0.15
12 -0.15
13 -0.15
14 -0.15
15 -0.15
16 0.08
17 0.11
18 -0.15
19 -0.15
2 -0.36
20 -0.15
21 0.63
22 0.28
24 0.15
25 0.15
26 0.15
27 0.15
28 0.15
29 0.15
3 -0.65
30 0.15
31 0.15
37 0.5
4 -0.57
5 -0.62
7 0.31
8 0.31
9 0.09

> <PUBCHEM_EFFECTIVE_ROTOR_COUNT>
4

> <PUBCHEM_PHARMACOPHORE_FEATURES>
9
1 1 hydrophobe
1 2 acceptor
1 3 acceptor
1 4 acceptor
1 5 acceptor
3 3 4 21 anion
6 10 14 15 16 18 19 rings
6 5 6 7 8 9 11 rings
6 6 8 12 13 17 20 rings

> <PUBCHEM_HEAVY_ATOM_COUNT>
23

> <PUBCHEM_ATOM_DEF_STEREO_COUNT>
0

> <PUBCHEM_ATOM_UDEF_STEREO_COUNT>
0

> <PUBCHEM_BOND_DEF_STEREO_COUNT>
0

> <PUBCHEM_BOND_UDEF_STEREO_COUNT>
0

> <PUBCHEM_ISOTOPIC_ATOM_COUNT>
0

> <PUBCHEM_COMPONENT_COUNT>
1

> <PUBCHEM_CACTVS_TAUTO_COUNT>
1

> <PUBCHEM_CONFORMER_ID>
000F78C700000001

> <PUBCHEM_MMFF94_ENERGY>
82.201

> <PUBCHEM_FEATURE_SELFOVERLAP>
45.764

> <PUBCHEM_SHAPE_FINGERPRINT>
10411042 1 18123469380992019286
10673678 19 17532958162922756678
11796584 16 16660370268510460658
12166972 35 17917990564063118801
12236239 1 17704071798382875699
12403259 415 17604138286183021973
12516196 113 18341892957675055866
12616971 3 18059852892095958639
12741549 16 17749100059811235396
13140716 1 18267303325813098850
13533116 47 18342457062679261265
13544592 145 17967254204511081971
13836976 161 18202003239412328814
13862211 1 18411137992616906298
14170010 4 18412259549857735864
14294032 229 16628859275008186665
15183329 4 18337106770816590569
15849732 13 17775282746997861422
17844677 252 18409453579399473173
1813 80 18129395812757321886
18222031 100 18271529706702684066
18335252 98 9439393650112795229
18681886 176 18060411430590952770
200 152 18273211972267105667
20612939 158 18410859888245011093
20645477 70 18335419096970426050
21033648 29 17821999935178793565
21133410 90 17059761227518673193
21267235 1 18341618071225890502
21641784 216 17970650523358171356
21792934 111 18410564073474987656
21792961 116 17968661493812157566
221357 26 18334290933921910197
22182313 1 18189593039486637892
23557571 272 17167857543879819479
23559900 14 17240489130089849679
23569943 247 17628091000871574958
249057 3 18413387644414070423
25147074 1 18130241384059074265
2838139 119 18270678668103671609
29717793 49 17847065476098032573
3004659 81 18201715150607955523
335352 9 18411139143298656006
34797466 226 16226339144235831902
350125 39 18411138009089926301
3633792 109 18343579617191513809
4073 2 18041564745129805251
46194498 28 18040155123661507572
474 4 18198622331504282976
495365 180 18338230578230562353
5104073 3 18339083808403015747
67856867 119 18059570338660534857
7471813 234 17988921158735615928
7495541 125 18040444316916156906
8272917 22 18411702114151614940
9981440 41 17407944948837916232
9999458 23 18187644738919703502

> <PUBCHEM_SHAPE_MULTIPOLES>
456.68
15.6
2.44
1
19.58
2.07
-0.11
-3.95
2.04
-4.63
0.03
0.76
0.15
0.26

> <PUBCHEM_SHAPE_SELFOVERLAP>
990.531

> <PUBCHEM_SHAPE_VOLUME>
257.5

> <PUBCHEM_COORDINATE_TYPE>
2
5
10

$$$$
