1794
  -OEChem-05262008443D

 39 40  0     0  0  0  0  0  0999 V2000
    0.8115    2.0737    1.5441 Cl  0  0  0  0  0  0  0  0  0  0  0  0
   -3.6905   -1.8114    0.6330 O   0  0  0  0  0  0  0  0  0  0  0  0
    2.3314   -0.0405   -0.0486 N   0  0  0  0  0  0  0  0  0  0  0  0
    0.3579   -1.3268   -0.4862 N   0  0  0  0  0  0  0  0  0  0  0  0
   -1.1721    0.5335    0.9510 N   0  0  0  0  0  0  0  0  0  0  0  0
   -1.6112   -2.5878   -0.9070 N   0  0  0  0  0  0  0  0  0  0  0  0
   -3.8927    0.4928    0.6859 N   0  0  0  0  0  0  0  0  0  0  0  0
   -5.1213    2.2407   -0.4244 N   0  0  0  0  0  0  0  0  0  0  0  0
   -4.1961    0.5344   -1.6226 N   0  0  0  0  0  0  0  0  0  0  0  0
    5.2633    0.5218   -1.0754 C   0  0  0  0  0  0  0  0  0  0  0  0
    5.6029   -0.1124    0.2696 C   0  0  0  0  0  0  0  0  0  0  0  0
    4.0658    1.4660   -1.0486 C   0  0  0  0  0  0  0  0  0  0  0  0
    4.4270   -0.4570    1.1784 C   0  0  0  0  0  0  0  0  0  0  0  0
    2.7319    0.7404   -1.2253 C   0  0  0  0  0  0  0  0  0  0  0  0
    3.2294   -1.0799    0.4659 C   0  0  0  0  0  0  0  0  0  0  0  0
    0.9460   -0.2347    0.0843 C   0  0  0  0  0  0  0  0  0  0  0  0
    0.1592    0.6740    0.7935 C   0  0  0  0  0  0  0  0  0  0  0  0
   -0.9733   -1.4672   -0.3289 C   0  0  0  0  0  0  0  0  0  0  0  0
   -1.7248   -0.5535    0.3770 C   0  0  0  0  0  0  0  0  0  0  0  0
   -3.1620   -0.6862    0.5590 C   0  0  0  0  0  0  0  0  0  0  0  0
   -4.3824    1.0801   -0.3747 C   0  0  0  0  0  0  0  0  0  0  0  0
    6.1469    1.0761   -1.4166 H   0  0  0  0  0  0  0  0  0  0  0  0
    5.1001   -0.2655   -1.8218 H   0  0  0  0  0  0  0  0  0  0  0  0
    6.1905   -1.0198    0.0804 H   0  0  0  0  0  0  0  0  0  0  0  0
    6.2696    0.5614    0.8231 H   0  0  0  0  0  0  0  0  0  0  0  0
    4.0660    2.0785   -0.1395 H   0  0  0  0  0  0  0  0  0  0  0  0
    4.1720    2.1599   -1.8923 H   0  0  0  0  0  0  0  0  0  0  0  0
    4.7935   -1.1632    1.9344 H   0  0  0  0  0  0  0  0  0  0  0  0
    4.1124    0.4381    1.7301 H   0  0  0  0  0  0  0  0  0  0  0  0
    1.9749    1.5078   -1.4360 H   0  0  0  0  0  0  0  0  0  0  0  0
    2.7635    0.0868   -2.1063 H   0  0  0  0  0  0  0  0  0  0  0  0
    3.5379   -1.7611   -0.3359 H   0  0  0  0  0  0  0  0  0  0  0  0
    2.6911   -1.6868    1.2060 H   0  0  0  0  0  0  0  0  0  0  0  0
   -2.5735   -2.4981   -1.2083 H   0  0  0  0  0  0  0  0  0  0  0  0
   -1.0200   -3.2362   -1.4128 H   0  0  0  0  0  0  0  0  0  0  0  0
   -5.3451    2.7554    0.4204 H   0  0  0  0  0  0  0  0  0  0  0  0
   -5.4597    2.6165   -1.3034 H   0  0  0  0  0  0  0  0  0  0  0  0
   -3.6870   -0.3285   -1.7754 H   0  0  0  0  0  0  0  0  0  0  0  0
   -4.5745    0.9864   -2.4484 H   0  0  0  0  0  0  0  0  0  0  0  0
  1 17  1  0  0  0  0
  2 20  2  0  0  0  0
  3 14  1  0  0  0  0
  3 15  1  0  0  0  0
  3 16  1  0  0  0  0
  4 16  2  0  0  0  0
  4 18  1  0  0  0  0
  5 17  2  0  0  0  0
  5 19  1  0  0  0  0
  6 18  1  0  0  0  0
  6 34  1  0  0  0  0
  6 35  1  0  0  0  0
  7 20  1  0  0  0  0
  7 21  2  0  0  0  0
  8 21  1  0  0  0  0
  8 36  1  0  0  0  0
  8 37  1  0  0  0  0
  9 21  1  0  0  0  0
  9 38  1  0  0  0  0
  9 39  1  0  0  0  0
 10 11  1  0  0  0  0
 10 12  1  0  0  0  0
 10 22  1  0  0  0  0
 10 23  1  0  0  0  0
 11 13  1  0  0  0  0
 11 24  1  0  0  0  0
 11 25  1  0  0  0  0
 12 14  1  0  0  0  0
 12 26  1  0  0  0  0
 12 27  1  0  0  0  0
 13 15  1  0  0  0  0
 13 28  1  0  0  0  0
 13 29  1  0  0  0  0
 14 30  1  0  0  0  0
 14 31  1  0  0  0  0
 15 32  1  0  0  0  0
 15 33  1  0  0  0  0
 16 17  1  0  0  0  0
 18 19  2  0  0  0  0
 19 20  1  0  0  0  0
M  END
> <PUBCHEM_COMPOUND_CID>
1794

> <PUBCHEM_CONFORMER_RMSD>
0.8

> <PUBCHEM_CONFORMER_DIVERSEORDER>
1
14
2
18
29
20
33
24
16
17
9
11
13
28
7
4
12
22
32
8
6
5
10
30
3
27
26
25
21
15
31
19
23

> <PUBCHEM_MMFF94_PARTIAL_CHARGES>
23
1 -0.18
14 0.37
15 0.37
16 0.41
17 0.49
18 0.41
19 0.4
2 -0.57
20 0.69
21 0.55
3 -0.84
34 0.4
35 0.4
36 0.4
37 0.4
38 0.4
39 0.4
4 -0.62
5 -0.62
6 -0.9
7 -0.66
8 -0.85
9 -0.85

> <PUBCHEM_EFFECTIVE_ROTOR_COUNT>
4.4

> <PUBCHEM_PHARMACOPHORE_FEATURES>
10
1 2 acceptor
1 5 acceptor
1 6 cation
1 6 donor
1 7 donor
1 8 donor
1 9 donor
3 3 4 16 cation
6 4 5 16 17 18 19 rings
7 3 10 11 12 13 14 15 rings

> <PUBCHEM_HEAVY_ATOM_COUNT>
21

> <PUBCHEM_ATOM_DEF_STEREO_COUNT>
0

> <PUBCHEM_ATOM_UDEF_STEREO_COUNT>
0

> <PUBCHEM_BOND_DEF_STEREO_COUNT>
0

> <PUBCHEM_BOND_UDEF_STEREO_COUNT>
0

> <PUBCHEM_ISOTOPIC_ATOM_COUNT>
0

> <PUBCHEM_COMPONENT_COUNT>
1

> <PUBCHEM_CACTVS_TAUTO_COUNT>
8

> <PUBCHEM_CONFORMER_ID>
0000070200000001

> <PUBCHEM_MMFF94_ENERGY>
86.3916

> <PUBCHEM_FEATURE_SELFOVERLAP>
50.877

> <PUBCHEM_SHAPE_FINGERPRINT>
10366900 7 16343708729419757322
11089746 13 18342729733199829372
11578080 2 18266158704028469820
12107183 9 17607795110947587339
12236239 1 18333734637426549242
12403259 415 18201153338852367217
12670546 56 17312816095807416355
12969540 114 17703781501089710797
13140716 1 17773316953003471355
13583140 156 17749966534338268353
13675066 3 18409166636386231858
13760787 19 18259705609648562586
14911166 2 18060701693107258361
15099037 51 18272931622102263129
15209294 21 15068333502114411149
15239154 128 18113903792220999828
15375358 24 17346602984538714086
15788980 27 18041000656645605128
16752209 62 18130793304699626368
16945 1 17918000494206945707
17349148 13 17203614812807866960
17959699 21 18262244429732477900
18186145 218 17918276493279468297
18222031 100 17060617789846125224
19784866 9 18260828168197293706
200 152 18259989301371405002
20715895 44 18191022292469334261
21029758 11 17632573838182904984
21069387 34 13830137212593521869
23366157 5 17907853256287622776
23402539 116 17561083588002649484
23402655 69 18259988188937958636
23536379 177 17676488337096726808
23559900 14 17845948402734046732
2748010 2 17700408358630073291
2838139 119 17822562820987579669
34934 24 18272080591850358410
350125 39 18340491179249940419
3759504 43 18261114092818567243
5104073 3 17676205801342501528
542803 24 16443068313792805854
559249 180 18409165507036854962
59755656 215 18129951075094141606
633830 44 16805322219072712816
6913067 236 15913323547106047052
8272917 22 17894912876407170178

> <PUBCHEM_SHAPE_MULTIPOLES>
393.3
11.5
1.99
1.3
2.09
0.11
0.06
-3.04
2.14
-1.68
0.07
0.38
-0.38
-0.21

> <PUBCHEM_SHAPE_SELFOVERLAP>
809.946

> <PUBCHEM_SHAPE_VOLUME>
224.1

> <PUBCHEM_COORDINATE_TYPE>
2
5
10

$$$$
