2119
  -OEChem-05262008433D

 41 41  0     1  0  0  0  0  0999 V2000
   -0.1762   -0.2458   -1.3330 O   0  0  0  0  0  0  0  0  0  0  0  0
    1.8401   -1.6765   -2.6056 O   0  0  0  0  0  0  0  0  0  0  0  0
    2.9109    0.4746    0.2116 N   0  0  0  0  0  0  0  0  0  0  0  0
    2.1343   -0.4351   -1.9585 C   0  0  2  0  0  0  0  0  0  0  0  0
    2.6220   -0.7392   -0.5400 C   0  0  0  0  0  0  0  0  0  0  0  0
    3.3184    0.1589    1.5740 C   0  0  0  0  0  0  0  0  0  0  0  0
    0.8831    0.4399   -1.9934 C   0  0  0  0  0  0  0  0  0  0  0  0
    3.6601    1.4485    2.3135 C   0  0  0  0  0  0  0  0  0  0  0  0
    2.2121   -0.6085    2.2926 C   0  0  0  0  0  0  0  0  0  0  0  0
   -1.1092    0.5293   -0.6979 C   0  0  0  0  0  0  0  0  0  0  0  0
   -1.7733    0.0550    0.4290 C   0  0  0  0  0  0  0  0  0  0  0  0
   -1.4879   -1.3058    0.9732 C   0  0  0  0  0  0  0  0  0  0  0  0
   -1.3835    1.7993   -1.1965 C   0  0  0  0  0  0  0  0  0  0  0  0
   -2.7210    0.8582    1.0636 C   0  0  0  0  0  0  0  0  0  0  0  0
   -2.3309    2.6026   -0.5618 C   0  0  0  0  0  0  0  0  0  0  0  0
   -2.9996    2.1320    0.5681 C   0  0  0  0  0  0  0  0  0  0  0  0
   -2.3679   -2.3736    0.3785 C   0  0  0  0  0  0  0  0  0  0  0  0
   -3.2314   -3.1140    1.0826 C   0  0  0  0  0  0  0  0  0  0  0  0
    2.9290    0.0565   -2.5324 H   0  0  0  0  0  0  0  0  0  0  0  0
    1.8516   -1.3561   -0.0685 H   0  0  0  0  0  0  0  0  0  0  0  0
    3.5185   -1.3701   -0.6022 H   0  0  0  0  0  0  0  0  0  0  0  0
    4.2246   -0.4601    1.5580 H   0  0  0  0  0  0  0  0  0  0  0  0
    3.6435    1.0045   -0.2594 H   0  0  0  0  0  0  0  0  0  0  0  0
    1.1173    1.4078   -1.5338 H   0  0  0  0  0  0  0  0  0  0  0  0
    0.5818    0.5975   -3.0358 H   0  0  0  0  0  0  0  0  0  0  0  0
    4.4672    1.9910    1.8084 H   0  0  0  0  0  0  0  0  0  0  0  0
    3.9955    1.2336    3.3339 H   0  0  0  0  0  0  0  0  0  0  0  0
    2.7929    2.1155    2.3786 H   0  0  0  0  0  0  0  0  0  0  0  0
    2.1322   -1.6474    1.9589 H   0  0  0  0  0  0  0  0  0  0  0  0
    1.2375   -0.1215    2.1755 H   0  0  0  0  0  0  0  0  0  0  0  0
    2.4208   -0.6538    3.3682 H   0  0  0  0  0  0  0  0  0  0  0  0
    2.6578   -2.2027   -2.6152 H   0  0  0  0  0  0  0  0  0  0  0  0
   -1.5870   -1.2888    2.0670 H   0  0  0  0  0  0  0  0  0  0  0  0
   -0.4417   -1.5804    0.7948 H   0  0  0  0  0  0  0  0  0  0  0  0
   -0.9136    2.1932   -2.0924 H   0  0  0  0  0  0  0  0  0  0  0  0
   -3.2510    0.5040    1.9439 H   0  0  0  0  0  0  0  0  0  0  0  0
   -2.5543    3.5914   -0.9518 H   0  0  0  0  0  0  0  0  0  0  0  0
   -3.7390    2.7566    1.0609 H   0  0  0  0  0  0  0  0  0  0  0  0
   -2.2766   -2.5592   -0.6891 H   0  0  0  0  0  0  0  0  0  0  0  0
   -3.8304   -3.8739    0.5929 H   0  0  0  0  0  0  0  0  0  0  0  0
   -3.3566   -2.9761    2.1508 H   0  0  0  0  0  0  0  0  0  0  0  0
  1  7  1  0  0  0  0
  1 10  1  0  0  0  0
  2  4  1  0  0  0  0
  2 32  1  0  0  0  0
  3  5  1  0  0  0  0
  3  6  1  0  0  0  0
  3 23  1  0  0  0  0
  4  5  1  0  0  0  0
  4  7  1  0  0  0  0
  4 19  1  0  0  0  0
  5 20  1  0  0  0  0
  5 21  1  0  0  0  0
  6  8  1  0  0  0  0
  6  9  1  0  0  0  0
  6 22  1  0  0  0  0
  7 24  1  0  0  0  0
  7 25  1  0  0  0  0
  8 26  1  0  0  0  0
  8 27  1  0  0  0  0
  8 28  1  0  0  0  0
  9 29  1  0  0  0  0
  9 30  1  0  0  0  0
  9 31  1  0  0  0  0
 10 11  1  0  0  0  0
 10 13  2  0  0  0  0
 11 12  1  0  0  0  0
 11 14  2  0  0  0  0
 12 17  1  0  0  0  0
 12 33  1  0  0  0  0
 12 34  1  0  0  0  0
 13 15  1  0  0  0  0
 13 35  1  0  0  0  0
 14 16  1  0  0  0  0
 14 36  1  0  0  0  0
 15 16  2  0  0  0  0
 15 37  1  0  0  0  0
 16 38  1  0  0  0  0
 17 18  2  0  0  0  0
 17 39  1  0  0  0  0
 18 40  1  0  0  0  0
 18 41  1  0  0  0  0
M  END
> <PUBCHEM_COMPOUND_CID>
2119

> <PUBCHEM_CONFORMER_RMSD>
0.8

> <PUBCHEM_CONFORMER_DIVERSEORDER>
3
168
166
8
267
147
295
306
327
197
55
344
154
128
165
113
220
296
319
205
270
84
117
101
239
335
336
261
225
317
214
303
156
310
348
161
111
130
196
218
339
361
194
169
36
146
89
81
362
278
129
277
354
94
157
374
299
340
221
222
152
47
355
104
112
307
102
238
289
247
118
294
363
77
244
210
72
227
153
250
300
60
253
7
298
293
302
176
273
212
163
134
54
333
246
245
288
204
232
254
276
224
372
164
107
268
125
11
103
260
313
90
92
217
58
56
330
274
234
370
138
24
143
235
282
233
100
231
139
122
201
175
206
83
93
229
15
115
279
311
105
148
291
271
162
341
316
179
110
249
63
39
320
74
66
352
27
314
366
35
136
368
350
173
209
109
28
202
140
68
34
322
32
85
126
200
120
137
228
75
50
44
158
33
30
356
19
41
31
369
177
145
364
79
290
255
20
155
189
287
51
16
226
150
248
95
193
373
219
347
198
144
108
45
281
343
86
199
208
48
114
252
171
301
305
131
332
59
337
57
184
367
259
215
211
67
116
186
203
70
25
187
365
178
216
308
43
265
106
257
42
213
292
159
91
181
99
13
124
297
329
251
88
207
326
38
78
160
191
338
243
180
359
346
312
29
358
264
275
286
315
170
22
123
21
280
190
192
304
135
121
18
127
331
284
272
12
334
73
49
263
133
119
4
52
9
188
325
149
345
242
256
46
283
357
185
223
23
98
324
1
172
14
262
342
328
97
87
40
174
71
5
76
10
82
69
318
309
141
96
269
132
236
142
321
151
230
167
37
323
349
62
237
195
61
240
360
53
183
26
6
17
351
64
258
371
353
2
80
65
241
285
266
182

> <PUBCHEM_MMFF94_PARTIAL_CHARGES>
25
1 -0.36
10 0.08
11 -0.14
12 0.28
13 -0.15
14 -0.15
15 -0.15
16 -0.15
17 -0.29
18 -0.3
2 -0.68
23 0.36
3 -0.9
32 0.4
35 0.15
36 0.15
37 0.15
38 0.15
39 0.15
4 0.28
40 0.15
41 0.15
5 0.27
6 0.27
7 0.28

> <PUBCHEM_EFFECTIVE_ROTOR_COUNT>
8

> <PUBCHEM_PHARMACOPHORE_FEATURES>
8
1 1 acceptor
1 18 hydrophobe
1 2 acceptor
1 2 donor
1 3 cation
1 3 donor
3 6 8 9 hydrophobe
6 10 11 13 14 15 16 rings

> <PUBCHEM_HEAVY_ATOM_COUNT>
18

> <PUBCHEM_ATOM_DEF_STEREO_COUNT>
0

> <PUBCHEM_ATOM_UDEF_STEREO_COUNT>
1

> <PUBCHEM_BOND_DEF_STEREO_COUNT>
0

> <PUBCHEM_BOND_UDEF_STEREO_COUNT>
0

> <PUBCHEM_ISOTOPIC_ATOM_COUNT>
0

> <PUBCHEM_COMPONENT_COUNT>
1

> <PUBCHEM_CACTVS_TAUTO_COUNT>
1

> <PUBCHEM_CONFORMER_ID>
0000084700000003

> <PUBCHEM_MMFF94_ENERGY>
35.6288

> <PUBCHEM_FEATURE_SELFOVERLAP>
40.599

> <PUBCHEM_SHAPE_FINGERPRINT>
10366900 7 17987809500987494388
11578080 2 17344937246118925683
11582403 64 17549776102827399269
12403259 327 18267853987532653578
12553582 1 15285915806869560040
12633257 1 18115850971912038656
13083527 12 17907572885011446623
13294875 104 16899330140951550940
14468879 13 17559652032395490393
14787075 74 17104538030788623300
15295992 7 17559130786616333995
16752209 62 17896051970405709469
18219364 16 17060335253774862136
18981168 100 17275388733009560308
19777482 4 16081911715952143991
20600515 1 18122908900291112547
21421861 104 17756163528454904073
21452121 199 17833841847440838755
21475661 188 17270897034837515801
22112679 90 17968955191880281163
22445834 79 16226914171251933660
23419403 2 17488483934901189043
23526113 38 17773049552724247334
23557571 272 18339370754819758219
23559900 14 18341349819767253653
23598288 3 17023187067861454613
23598291 2 16299820549716930724
23598294 1 17898886571269006319
27216 239 17916001607795469336
2803657 2 17023475268804475530
31174 14 16700644300892694751
3797600 57 18048596216531538488
4072396 5 17532102601106145129
469060 322 17056647581658475703
474 4 16987984004064647536
5283178 26 17323209547376391970
6049 1 17916889970187992750
81228 2 18338536208720608291
9981440 41 17273383176502999082

> <PUBCHEM_SHAPE_MULTIPOLES>
353.71
6.23
2.85
2.52
2.94
1.09
0.59
0.73
-3.42
-4.38
-0.29
3.24
-0.02
0

> <PUBCHEM_SHAPE_SELFOVERLAP>
704.675

> <PUBCHEM_SHAPE_VOLUME>
210.4

> <PUBCHEM_COORDINATE_TYPE>
2
5
10

$$$$
