3189
  -OEChem-05262008443D

 54 54  0     1  0  0  0  0  0999 V2000
   -3.0079    2.0175    1.2780 O   0  0  0  0  0  0  0  0  0  0  0  0
   -0.5865    1.0089    2.4056 O   0  0  0  0  0  0  0  0  0  0  0  0
   -4.6614   -0.1165   -0.8637 O   0  0  0  0  0  0  0  0  0  0  0  0
    1.1402    1.1615   -1.1705 O   0  0  0  0  0  0  0  0  0  0  0  0
   -5.2733    2.0791   -0.4715 O   0  0  0  0  0  0  0  0  0  0  0  0
   -0.4853   -0.2950    0.4780 N   0  0  0  0  0  0  0  0  0  0  0  0
    2.8445    0.8798    0.3815 N   0  0  0  0  0  0  0  0  0  0  0  0
   -2.5840    0.6496    1.2163 C   0  0  1  0  0  0  0  0  0  0  0  0
   -3.0804    1.3743   -0.0009 C   0  0  1  0  0  0  0  0  0  0  0  0
    0.9251   -0.5844    0.4986 C   0  0  1  0  0  0  0  0  0  0  0  0
    1.2548   -1.9151   -0.1896 C   0  0  0  0  0  0  0  0  0  0  0  0
   -1.1176    0.4786    1.4369 C   0  0  0  0  0  0  0  0  0  0  0  0
    0.5557   -3.1484    0.4179 C   0  0  0  0  0  0  0  0  0  0  0  0
    1.6300    0.5663   -0.2128 C   0  0  0  0  0  0  0  0  0  0  0  0
   -4.4567    1.1690   -0.4660 C   0  0  0  0  0  0  0  0  0  0  0  0
    0.9635   -3.3017    1.8859 C   0  0  0  0  0  0  0  0  0  0  0  0
    0.8782   -4.4349   -0.3433 C   0  0  0  0  0  0  0  0  0  0  0  0
    4.6907    1.5218   -1.1310 C   0  0  0  0  0  0  0  0  0  0  0  0
    3.6896    1.9634   -0.0661 C   0  0  0  0  0  0  0  0  0  0  0  0
    5.6492    0.3946   -0.6975 C   0  0  0  0  0  0  0  0  0  0  0  0
    6.5863   -0.0413   -1.8249 C   0  0  0  0  0  0  0  0  0  0  0  0
    6.4724    0.8524    0.5097 C   0  0  0  0  0  0  0  0  0  0  0  0
   -5.9804   -0.4107   -1.3345 C   0  0  0  0  0  0  0  0  0  0  0  0
   -6.0468   -1.8688   -1.7361 C   0  0  0  0  0  0  0  0  0  0  0  0
   -3.2224   -0.0833    1.6946 H   0  0  0  0  0  0  0  0  0  0  0  0
   -2.3670    1.6968   -0.7494 H   0  0  0  0  0  0  0  0  0  0  0  0
    1.2544   -0.5986    1.5434 H   0  0  0  0  0  0  0  0  0  0  0  0
    0.9763   -1.8485   -1.2505 H   0  0  0  0  0  0  0  0  0  0  0  0
    2.3425   -2.0670   -0.1770 H   0  0  0  0  0  0  0  0  0  0  0  0
   -0.5310   -3.0062    0.3748 H   0  0  0  0  0  0  0  0  0  0  0  0
   -1.0314   -0.6383   -0.3073 H   0  0  0  0  0  0  0  0  0  0  0  0
    4.1365    1.1818   -2.0157 H   0  0  0  0  0  0  0  0  0  0  0  0
    5.2730    2.3962   -1.4483 H   0  0  0  0  0  0  0  0  0  0  0  0
    3.0536    2.7547   -0.4792 H   0  0  0  0  0  0  0  0  0  0  0  0
    4.1898    2.3798    0.8129 H   0  0  0  0  0  0  0  0  0  0  0  0
    0.5793   -2.4823    2.5004 H   0  0  0  0  0  0  0  0  0  0  0  0
    0.5543   -4.2279    2.3048 H   0  0  0  0  0  0  0  0  0  0  0  0
    2.0525   -3.3369    1.9974 H   0  0  0  0  0  0  0  0  0  0  0  0
    0.5737   -4.3488   -1.3916 H   0  0  0  0  0  0  0  0  0  0  0  0
    0.3489   -5.2898    0.0903 H   0  0  0  0  0  0  0  0  0  0  0  0
    1.9517   -4.6510   -0.3193 H   0  0  0  0  0  0  0  0  0  0  0  0
    5.0623   -0.4839   -0.4019 H   0  0  0  0  0  0  0  0  0  0  0  0
    3.1746    0.3233    1.1644 H   0  0  0  0  0  0  0  0  0  0  0  0
    7.2362   -0.8604   -1.4995 H   0  0  0  0  0  0  0  0  0  0  0  0
    6.0122   -0.3918   -2.6889 H   0  0  0  0  0  0  0  0  0  0  0  0
    7.2218    0.7876   -2.1545 H   0  0  0  0  0  0  0  0  0  0  0  0
    7.2208    0.0971    0.7744 H   0  0  0  0  0  0  0  0  0  0  0  0
    5.8461    0.9987    1.3947 H   0  0  0  0  0  0  0  0  0  0  0  0
    7.0015    1.7886    0.3015 H   0  0  0  0  0  0  0  0  0  0  0  0
   -6.7053   -0.2130   -0.5370 H   0  0  0  0  0  0  0  0  0  0  0  0
   -6.2092    0.2223   -2.1991 H   0  0  0  0  0  0  0  0  0  0  0  0
   -5.3147   -2.0861   -2.5208 H   0  0  0  0  0  0  0  0  0  0  0  0
   -5.8023   -2.5142   -0.8859 H   0  0  0  0  0  0  0  0  0  0  0  0
   -7.0441   -2.1288   -2.1015 H   0  0  0  0  0  0  0  0  0  0  0  0
  1  8  1  0  0  0  0
  1  9  1  0  0  0  0
  2 12  2  0  0  0  0
  3 15  1  0  0  0  0
  3 23  1  0  0  0  0
  4 14  2  0  0  0  0
  5 15  2  0  0  0  0
  6 10  1  0  0  0  0
  6 12  1  0  0  0  0
  6 31  1  0  0  0  0
  7 14  1  0  0  0  0
  7 19  1  0  0  0  0
  7 43  1  0  0  0  0
  8  9  1  0  0  0  0
  8 12  1  0  0  0  0
  8 25  1  0  0  0  0
  9 15  1  0  0  0  0
  9 26  1  0  0  0  0
 10 11  1  0  0  0  0
 10 14  1  0  0  0  0
 10 27  1  0  0  0  0
 11 13  1  0  0  0  0
 11 28  1  0  0  0  0
 11 29  1  0  0  0  0
 13 16  1  0  0  0  0
 13 17  1  0  0  0  0
 13 30  1  0  0  0  0
 16 36  1  0  0  0  0
 16 37  1  0  0  0  0
 16 38  1  0  0  0  0
 17 39  1  0  0  0  0
 17 40  1  0  0  0  0
 17 41  1  0  0  0  0
 18 19  1  0  0  0  0
 18 20  1  0  0  0  0
 18 32  1  0  0  0  0
 18 33  1  0  0  0  0
 19 34  1  0  0  0  0
 19 35  1  0  0  0  0
 20 21  1  0  0  0  0
 20 22  1  0  0  0  0
 20 42  1  0  0  0  0
 21 44  1  0  0  0  0
 21 45  1  0  0  0  0
 21 46  1  0  0  0  0
 22 47  1  0  0  0  0
 22 48  1  0  0  0  0
 22 49  1  0  0  0  0
 23 24  1  0  0  0  0
 23 50  1  0  0  0  0
 23 51  1  0  0  0  0
 24 52  1  0  0  0  0
 24 53  1  0  0  0  0
 24 54  1  0  0  0  0
M  END
> <PUBCHEM_COMPOUND_CID>
3189

> <PUBCHEM_CONFORMER_RMSD>
1.2

> <PUBCHEM_CONFORMER_DIVERSEORDER>
1
24
56
33
90
39
112
84
95
89
20
87
36
44
48
41
115
117
32
46
42
38
101
58
85
35
26
61
88
69
29
9
107
114
30
72
74
118
71
82
97
76
105
17
79
65
19
27
57
37
120
51
40
64
25
104
21
92
22
80
94
113
12
54
116
111
91
15
16
63
7
106
10
55
119
53
81
99
83
102
70
49
73
109
66
52
6
68
60
96
11
75
67
98
14
86
77
78
100
59
4
45
50
62
28
47
8
34
18
110
2
5
93
23
13
3
31
103
43
121
108

> <PUBCHEM_MMFF94_PARTIAL_CHARGES>
19
1 -0.3
10 0.36
12 0.63
14 0.57
15 0.72
19 0.3
2 -0.57
23 0.28
25 0.1
26 0.1
3 -0.43
31 0.37
4 -0.57
43 0.37
5 -0.57
6 -0.73
7 -0.73
8 0.05
9 0.05

> <PUBCHEM_EFFECTIVE_ROTOR_COUNT>
13.6

> <PUBCHEM_PHARMACOPHORE_FEATURES>
8
1 1 acceptor
1 2 acceptor
1 4 acceptor
1 5 acceptor
1 6 donor
1 7 donor
3 13 16 17 hydrophobe
3 20 21 22 hydrophobe

> <PUBCHEM_HEAVY_ATOM_COUNT>
24

> <PUBCHEM_ATOM_DEF_STEREO_COUNT>
0

> <PUBCHEM_ATOM_UDEF_STEREO_COUNT>
3

> <PUBCHEM_BOND_DEF_STEREO_COUNT>
0

> <PUBCHEM_BOND_UDEF_STEREO_COUNT>
0

> <PUBCHEM_ISOTOPIC_ATOM_COUNT>
0

> <PUBCHEM_COMPONENT_COUNT>
1

> <PUBCHEM_CACTVS_TAUTO_COUNT>
4

> <PUBCHEM_CONFORMER_ID>
00000C7500000001

> <PUBCHEM_MMFF94_ENERGY>
27.8299

> <PUBCHEM_FEATURE_SELFOVERLAP>
40.602

> <PUBCHEM_SHAPE_FINGERPRINT>
10759866 29 18342449306258611751
11089746 13 18113897182720407964
11991303 11 17750242563439489154
12516196 113 9871747988225383996
12788726 201 17685491344759176114
13631057 29 18271801376522148903
13968360 50 18335130977758916954
14784336 7 17988362573201872242
14931854 50 18269537477902019271
15842332 3 17700142002107102137
17138139 8 18057304266792357543
17492 89 10302999496035457084
17980427 23 12396299279299827971
20028762 73 18341891909423273084
20197701 30 18411139151835686914
20721686 146 14201391677526111830
21054139 6 18341325665071751271
21344244 246 18340208497034602534
21521239 73 18131071519896509678
22393880 68 18201712942852535421
23402539 116 17060069116058372048
23559900 14 17913472555358773947
23622692 88 7925916976140573985
266924 1 17844255025050046089
2838139 119 17821444659942144317
312425 83 17899397711628263037
314173 85 8790889549455102808
4409770 3 18191874641566856219
59755656 215 18341613737150234526

> <PUBCHEM_SHAPE_MULTIPOLES>
454.6
15.01
3.65
1.74
1.43
5.54
-0.32
-6.54
9.88
-0.06
-0.54
-0.53
0.22
-1.57

> <PUBCHEM_SHAPE_SELFOVERLAP>
883.233

> <PUBCHEM_SHAPE_VOLUME>
276.2

> <PUBCHEM_COORDINATE_TYPE>
2
5
10

$$$$
