4046
  -OEChem-05262008443D

 42 44  0     1  0  0  0  0  0999 V2000
   -0.0541    3.9101    0.3361 F   0  0  0  0  0  0  0  0  0  0  0  0
    2.0185    3.5624    0.8721 F   0  0  0  0  0  0  0  0  0  0  0  0
    1.3961    3.4129   -1.2061 F   0  0  0  0  0  0  0  0  0  0  0  0
    4.7880   -1.9670   -0.7526 F   0  0  0  0  0  0  0  0  0  0  0  0
    3.8730   -0.2518   -1.7142 F   0  0  0  0  0  0  0  0  0  0  0  0
    4.4743   -0.1325    0.3721 F   0  0  0  0  0  0  0  0  0  0  0  0
   -2.6806    0.4453    2.0924 O   0  0  0  0  0  0  0  0  0  0  0  0
   -4.3651   -1.2131    0.5253 N   0  0  0  0  0  0  0  0  0  0  0  0
    1.7458    0.7981   -0.0101 N   0  0  0  0  0  0  0  0  0  0  0  0
   -3.0599   -0.7530    0.0346 C   0  0  1  0  0  0  0  0  0  0  0  0
   -3.2082    0.5442   -0.7724 C   0  0  0  0  0  0  0  0  0  0  0  0
   -2.1260   -0.5397    1.2245 C   0  0  1  0  0  0  0  0  0  0  0  0
   -4.2016    0.3722   -1.9183 C   0  0  0  0  0  0  0  0  0  0  0  0
   -5.5227   -0.1879   -1.4022 C   0  0  0  0  0  0  0  0  0  0  0  0
   -5.3017   -1.4508   -0.5733 C   0  0  0  0  0  0  0  0  0  0  0  0
   -0.7485   -0.1035    0.7889 C   0  0  0  0  0  0  0  0  0  0  0  0
    0.2690   -1.0248    0.5408 C   0  0  0  0  0  0  0  0  0  0  0  0
   -0.5335    1.2534    0.6426 C   0  0  0  0  0  0  0  0  0  0  0  0
    1.5232   -0.5218    0.1359 C   0  0  0  0  0  0  0  0  0  0  0  0
    0.7264    1.6505    0.2429 C   0  0  0  0  0  0  0  0  0  0  0  0
    0.0717   -2.4088    0.6827 C   0  0  0  0  0  0  0  0  0  0  0  0
    2.5448   -1.4340   -0.1144 C   0  0  0  0  0  0  0  0  0  0  0  0
    1.1109   -3.2984    0.4257 C   0  0  0  0  0  0  0  0  0  0  0  0
    2.3489   -2.8100    0.0267 C   0  0  0  0  0  0  0  0  0  0  0  0
    1.0150    3.1041    0.0673 C   0  0  0  0  0  0  0  0  0  0  0  0
    3.8963   -0.9561   -0.5469 C   0  0  0  0  0  0  0  0  0  0  0  0
   -2.6362   -1.5308   -0.6149 H   0  0  0  0  0  0  0  0  0  0  0  0
   -2.2610    0.8418   -1.2318 H   0  0  0  0  0  0  0  0  0  0  0  0
   -3.5480    1.3716   -0.1369 H   0  0  0  0  0  0  0  0  0  0  0  0
   -2.0659   -1.4405    1.8428 H   0  0  0  0  0  0  0  0  0  0  0  0
   -3.7827   -0.3118   -2.6668 H   0  0  0  0  0  0  0  0  0  0  0  0
   -4.3702    1.3323   -2.4184 H   0  0  0  0  0  0  0  0  0  0  0  0
   -6.0268    0.5711   -0.7905 H   0  0  0  0  0  0  0  0  0  0  0  0
   -6.1853   -0.4096   -2.2463 H   0  0  0  0  0  0  0  0  0  0  0  0
   -4.7639   -0.5039    1.1402 H   0  0  0  0  0  0  0  0  0  0  0  0
   -6.2579   -1.7872   -0.1581 H   0  0  0  0  0  0  0  0  0  0  0  0
   -4.9318   -2.2648   -1.2084 H   0  0  0  0  0  0  0  0  0  0  0  0
   -1.3065    1.9896    0.8309 H   0  0  0  0  0  0  0  0  0  0  0  0
   -3.4527    0.0530    2.5336 H   0  0  0  0  0  0  0  0  0  0  0  0
   -0.8794   -2.8432    0.9727 H   0  0  0  0  0  0  0  0  0  0  0  0
    0.9537   -4.3674    0.5320 H   0  0  0  0  0  0  0  0  0  0  0  0
    3.1494   -3.5173   -0.1711 H   0  0  0  0  0  0  0  0  0  0  0  0
  1 25  1  0  0  0  0
  2 25  1  0  0  0  0
  3 25  1  0  0  0  0
  4 26  1  0  0  0  0
  5 26  1  0  0  0  0
  6 26  1  0  0  0  0
  7 12  1  0  0  0  0
  7 39  1  0  0  0  0
  8 10  1  0  0  0  0
  8 15  1  0  0  0  0
  8 35  1  0  0  0  0
  9 19  1  0  0  0  0
  9 20  2  0  0  0  0
 10 11  1  0  0  0  0
 10 12  1  0  0  0  0
 10 27  1  0  0  0  0
 11 13  1  0  0  0  0
 11 28  1  0  0  0  0
 11 29  1  0  0  0  0
 12 16  1  0  0  0  0
 12 30  1  0  0  0  0
 13 14  1  0  0  0  0
 13 31  1  0  0  0  0
 13 32  1  0  0  0  0
 14 15  1  0  0  0  0
 14 33  1  0  0  0  0
 14 34  1  0  0  0  0
 15 36  1  0  0  0  0
 15 37  1  0  0  0  0
 16 17  1  0  0  0  0
 16 18  2  0  0  0  0
 17 19  2  0  0  0  0
 17 21  1  0  0  0  0
 18 20  1  0  0  0  0
 18 38  1  0  0  0  0
 19 22  1  0  0  0  0
 20 25  1  0  0  0  0
 21 23  2  0  0  0  0
 21 40  1  0  0  0  0
 22 24  2  0  0  0  0
 22 26  1  0  0  0  0
 23 24  1  0  0  0  0
 23 41  1  0  0  0  0
 24 42  1  0  0  0  0
M  END
> <PUBCHEM_COMPOUND_CID>
4046

> <PUBCHEM_CONFORMER_RMSD>
0.8

> <PUBCHEM_CONFORMER_DIVERSEORDER>
2
7
8
10
11
5
4
6
9
3
1

> <PUBCHEM_MMFF94_PARTIAL_CHARGES>
28
1 -0.34
10 0.27
12 0.42
15 0.27
16 -0.14
18 -0.15
19 0.31
2 -0.34
20 0.17
21 -0.15
22 -0.14
23 -0.15
24 -0.15
25 1.16
26 1.16
3 -0.34
35 0.36
38 0.15
39 0.4
4 -0.34
40 0.15
41 0.15
42 0.15
5 -0.34
6 -0.34
7 -0.68
8 -0.9
9 -0.62

> <PUBCHEM_EFFECTIVE_ROTOR_COUNT>
5.2

> <PUBCHEM_PHARMACOPHORE_FEATURES>
8
1 7 acceptor
1 7 donor
1 8 cation
1 8 donor
1 9 acceptor
6 17 19 21 22 23 24 rings
6 8 10 11 13 14 15 rings
6 9 16 17 18 19 20 rings

> <PUBCHEM_HEAVY_ATOM_COUNT>
26

> <PUBCHEM_ATOM_DEF_STEREO_COUNT>
0

> <PUBCHEM_ATOM_UDEF_STEREO_COUNT>
2

> <PUBCHEM_BOND_DEF_STEREO_COUNT>
0

> <PUBCHEM_BOND_UDEF_STEREO_COUNT>
0

> <PUBCHEM_ISOTOPIC_ATOM_COUNT>
0

> <PUBCHEM_COMPONENT_COUNT>
1

> <PUBCHEM_CACTVS_TAUTO_COUNT>
1

> <PUBCHEM_CONFORMER_ID>
00000FCE00000002

> <PUBCHEM_MMFF94_ENERGY>
49.7742

> <PUBCHEM_FEATURE_SELFOVERLAP>
40.63

> <PUBCHEM_SHAPE_FINGERPRINT>
10165383 225 17470480741940640673
10693767 8 18201431458948703086
10930396 42 18119215529675862304
11045515 52 18263363603456453069
11115154 58 17916849242015931629
12035758 1 18265037202109434472
12236239 1 17704355459698562755
12553582 1 18338245855434664994
12730499 353 18261955275654655955
12788726 201 17760078523830466025
13140716 1 18194135237478273458
13149001 5 18265909123045914710
13911987 19 18261409853072561806
13944108 23 16313552127937683941
14537116 161 17398902204924912517
14790565 3 18121818038738416048
15210252 30 17895476912581252804
17357779 13 18337947904963426060
17492 54 18263376909560398902
1813 80 17988934339931796517
200 152 18130785646978828043
20645477 70 18337102492744353187
20771845 165 18044653341637782132
221357 26 18335691716521073421
221490 88 18265053716248520835
22182313 1 17972325289450789979
22393880 68 18261381287403513063
23402539 116 18270689649553851498
23559900 14 18339348765088213299
23566358 2 17981612880970908439
238 59 18334571395391794887
24771293 8 18201434818250905736
266924 87 18119814608266669390
2748010 2 17975711793659030802
283562 15 18266182730196031082
3060560 45 18410565219192194150
350125 39 17903937886453379298
46194498 28 18114457968067613943
532947 4 18340203119608492528
6287921 2 17971469852509088109
6443956 14 18410853273995602577
6669772 16 18125157392705478172
70251023 43 17906733605305397307
7164475 11 17977943480288918886
7471813 234 17989203759246900697
81228 2 17902232208948212040

> <PUBCHEM_SHAPE_MULTIPOLES>
475.59
9.07
3.86
1.34
7.04
3.23
0.12
-4.2
4.43
-3.4
-0.37
0.94
0.18
0.41

> <PUBCHEM_SHAPE_SELFOVERLAP>
1038.264

> <PUBCHEM_SHAPE_VOLUME>
259.4

> <PUBCHEM_COORDINATE_TYPE>
2
5
10

$$$$
