441082
  -OEChem-05262008433D

 66 70  0     1  0  0  0  0  0999 V2000
   -4.4665    0.7339   -1.0496 N   0  0  1  0  0  0  0  0  0  0  0  0
    6.0885   -0.0995   -0.0386 N   0  0  0  0  0  0  0  0  0  0  0  0
   -2.6746    0.2186    0.4973 C   0  0  1  0  0  0  0  0  0  0  0  0
   -1.8742   -1.0890    0.4262 C   0  0  2  0  0  0  0  0  0  0  0  0
   -4.0557   -0.2513    1.0067 C   0  0  2  0  0  0  0  0  0  0  0  0
   -0.4981   -0.9063   -0.2222 C   0  0  1  0  0  0  0  0  0  0  0  0
    0.3184    0.1442    0.5847 C   0  0  2  0  0  0  0  0  0  0  0  0
   -1.9058    1.1761    1.4147 C   0  0  0  0  0  0  0  0  0  0  0  0
   -2.8566   -2.0698   -0.1852 C   0  0  0  0  0  0  0  0  0  0  0  0
   -3.0166    0.9093   -0.8567 C   0  0  0  0  0  0  0  0  0  0  0  0
   -4.1437   -1.7459    0.5828 C   0  0  0  0  0  0  0  0  0  0  0  0
   -5.0344    0.6949    0.3024 C   0  0  2  0  0  0  0  0  0  0  0  0
   -0.4944    1.4384    0.8598 C   0  0  0  0  0  0  0  0  0  0  0  0
    1.7383    0.3980   -0.0635 C   0  0  2  0  0  0  0  0  0  0  0  0
    0.2606   -2.2401   -0.2750 C   0  0  0  0  0  0  0  0  0  0  0  0
    2.3999   -0.9275   -0.4644 C   0  0  0  0  0  0  0  0  0  0  0  0
    2.6327    1.1159    0.9903 C   0  0  0  0  0  0  0  0  0  0  0  0
    1.7245   -2.0877   -0.5376 C   0  0  0  0  0  0  0  0  0  0  0  0
   -6.4919    0.2525    0.3605 C   0  0  0  0  0  0  0  0  0  0  0  0
    1.6287    1.2811   -1.3299 C   0  0  0  0  0  0  0  0  0  0  0  0
    3.8804   -0.8945   -0.7802 C   0  0  0  0  0  0  0  0  0  0  0  0
    4.1158    1.1898    0.6183 C   0  0  0  0  0  0  0  0  0  0  0  0
   -5.0326    1.7748   -1.8973 C   0  0  0  0  0  0  0  0  0  0  0  0
    4.6768   -0.2043    0.3311 C   0  0  2  0  0  0  0  0  0  0  0  0
    6.8469    0.5597    1.0236 C   0  0  0  0  0  0  0  0  0  0  0  0
    6.2335    0.6288   -1.2983 C   0  0  0  0  0  0  0  0  0  0  0  0
   -1.6950   -1.4377    1.4574 H   0  0  0  0  0  0  0  0  0  0  0  0
   -4.1519   -0.1689    2.0957 H   0  0  0  0  0  0  0  0  0  0  0  0
   -0.6239   -0.5521   -1.2513 H   0  0  0  0  0  0  0  0  0  0  0  0
    0.4944   -0.3069    1.5749 H   0  0  0  0  0  0  0  0  0  0  0  0
   -1.8208    0.7498    2.4224 H   0  0  0  0  0  0  0  0  0  0  0  0
   -2.4412    2.1265    1.5262 H   0  0  0  0  0  0  0  0  0  0  0  0
   -2.5590   -3.1129   -0.0424 H   0  0  0  0  0  0  0  0  0  0  0  0
   -2.9872   -1.8982   -1.2591 H   0  0  0  0  0  0  0  0  0  0  0  0
   -2.7710    1.9779   -0.8132 H   0  0  0  0  0  0  0  0  0  0  0  0
   -2.4789    0.4820   -1.7073 H   0  0  0  0  0  0  0  0  0  0  0  0
   -5.0241   -2.0019   -0.0107 H   0  0  0  0  0  0  0  0  0  0  0  0
   -4.1841   -2.3612    1.4906 H   0  0  0  0  0  0  0  0  0  0  0  0
   -4.9592    1.6853    0.7748 H   0  0  0  0  0  0  0  0  0  0  0  0
   -0.5919    2.0253   -0.0584 H   0  0  0  0  0  0  0  0  0  0  0  0
    0.0409    2.0690    1.5780 H   0  0  0  0  0  0  0  0  0  0  0  0
   -0.1741   -2.8676   -1.0625 H   0  0  0  0  0  0  0  0  0  0  0  0
    0.1438   -2.7889    0.6678 H   0  0  0  0  0  0  0  0  0  0  0  0
    2.5540    0.5939    1.9540 H   0  0  0  0  0  0  0  0  0  0  0  0
    2.2713    2.1367    1.1645 H   0  0  0  0  0  0  0  0  0  0  0  0
    2.2523   -2.9991   -0.8081 H   0  0  0  0  0  0  0  0  0  0  0  0
   -6.7834    0.0215    1.3905 H   0  0  0  0  0  0  0  0  0  0  0  0
   -7.1520    1.0489    0.0002 H   0  0  0  0  0  0  0  0  0  0  0  0
   -6.6885   -0.6306   -0.2548 H   0  0  0  0  0  0  0  0  0  0  0  0
    1.2985    2.2962   -1.0871 H   0  0  0  0  0  0  0  0  0  0  0  0
    2.5875    1.3917   -1.8472 H   0  0  0  0  0  0  0  0  0  0  0  0
    0.9249    0.8632   -2.0570 H   0  0  0  0  0  0  0  0  0  0  0  0
    4.2742   -1.9082   -0.9317 H   0  0  0  0  0  0  0  0  0  0  0  0
    3.9596   -0.3867   -1.7456 H   0  0  0  0  0  0  0  0  0  0  0  0
    4.2007    1.8793   -0.2253 H   0  0  0  0  0  0  0  0  0  0  0  0
    4.6169    1.6644    1.4689 H   0  0  0  0  0  0  0  0  0  0  0  0
   -6.0920    1.5829   -2.0955 H   0  0  0  0  0  0  0  0  0  0  0  0
   -4.5309    1.7868   -2.8714 H   0  0  0  0  0  0  0  0  0  0  0  0
   -4.9402    2.7715   -1.4515 H   0  0  0  0  0  0  0  0  0  0  0  0
    4.5926   -0.8194    1.2380 H   0  0  0  0  0  0  0  0  0  0  0  0
    6.6368    0.1157    2.0034 H   0  0  0  0  0  0  0  0  0  0  0  0
    6.6912    1.6426    1.0791 H   0  0  0  0  0  0  0  0  0  0  0  0
    7.9182    0.4064    0.8462 H   0  0  0  0  0  0  0  0  0  0  0  0
    5.8492    0.0765   -2.1600 H   0  0  0  0  0  0  0  0  0  0  0  0
    7.3057    0.7253   -1.5183 H   0  0  0  0  0  0  0  0  0  0  0  0
    5.8436    1.6492   -1.3092 H   0  0  0  0  0  0  0  0  0  0  0  0
  1 10  1  0  0  0  0
  1 12  1  0  0  0  0
  1 23  1  0  0  0  0
  2 24  1  0  0  0  0
  2 25  1  0  0  0  0
  2 26  1  0  0  0  0
  3  4  1  0  0  0  0
  3  5  1  0  0  0  0
  3  8  1  0  0  0  0
  3 10  1  0  0  0  0
  4  6  1  0  0  0  0
  4  9  1  0  0  0  0
  4 27  1  0  0  0  0
  5 11  1  0  0  0  0
  5 12  1  0  0  0  0
  5 28  1  0  0  0  0
  6  7  1  0  0  0  0
  6 15  1  0  0  0  0
  6 29  1  0  0  0  0
  7 13  1  0  0  0  0
  7 14  1  0  0  0  0
  7 30  1  0  0  0  0
  8 13  1  0  0  0  0
  8 31  1  0  0  0  0
  8 32  1  0  0  0  0
  9 11  1  0  0  0  0
  9 33  1  0  0  0  0
  9 34  1  0  0  0  0
 10 35  1  0  0  0  0
 10 36  1  0  0  0  0
 11 37  1  0  0  0  0
 11 38  1  0  0  0  0
 12 19  1  0  0  0  0
 12 39  1  0  0  0  0
 13 40  1  0  0  0  0
 13 41  1  0  0  0  0
 14 16  1  0  0  0  0
 14 17  1  0  0  0  0
 14 20  1  0  0  0  0
 15 18  1  0  0  0  0
 15 42  1  0  0  0  0
 15 43  1  0  0  0  0
 16 18  2  0  0  0  0
 16 21  1  0  0  0  0
 17 22  1  0  0  0  0
 17 44  1  0  0  0  0
 17 45  1  0  0  0  0
 18 46  1  0  0  0  0
 19 47  1  0  0  0  0
 19 48  1  0  0  0  0
 19 49  1  0  0  0  0
 20 50  1  0  0  0  0
 20 51  1  0  0  0  0
 20 52  1  0  0  0  0
 21 24  1  0  0  0  0
 21 53  1  0  0  0  0
 21 54  1  0  0  0  0
 22 24  1  0  0  0  0
 22 55  1  0  0  0  0
 22 56  1  0  0  0  0
 23 57  1  0  0  0  0
 23 58  1  0  0  0  0
 23 59  1  0  0  0  0
 24 60  1  0  0  0  0
 25 61  1  0  0  0  0
 25 62  1  0  0  0  0
 25 63  1  0  0  0  0
 26 64  1  0  0  0  0
 26 65  1  0  0  0  0
 26 66  1  0  0  0  0
M  END
> <PUBCHEM_COMPOUND_CID>
441082

> <PUBCHEM_CONFORMER_RMSD>
0.8

> <PUBCHEM_CONFORMER_DIVERSEORDER>
1

> <PUBCHEM_MMFF94_PARTIAL_CHARGES>
14
1 -0.81
10 0.27
12 0.27
14 0.14
15 0.14
16 -0.28
18 -0.29
2 -0.81
21 0.14
23 0.27
24 0.27
25 0.27
26 0.27
46 0.15

> <PUBCHEM_EFFECTIVE_ROTOR_COUNT>
3.4

> <PUBCHEM_PHARMACOPHORE_FEATURES>
7
1 1 cation
1 2 cation
5 1 3 5 10 12 rings
5 3 4 5 9 11 rings
6 14 16 17 21 22 24 rings
6 3 4 6 7 8 13 rings
6 6 7 14 15 16 18 rings

> <PUBCHEM_HEAVY_ATOM_COUNT>
26

> <PUBCHEM_ATOM_DEF_STEREO_COUNT>
8

> <PUBCHEM_ATOM_UDEF_STEREO_COUNT>
0

> <PUBCHEM_BOND_DEF_STEREO_COUNT>
0

> <PUBCHEM_BOND_UDEF_STEREO_COUNT>
0

> <PUBCHEM_ISOTOPIC_ATOM_COUNT>
0

> <PUBCHEM_COMPONENT_COUNT>
1

> <PUBCHEM_CACTVS_TAUTO_COUNT>
1

> <PUBCHEM_CONFORMER_ID>
0006BAFA00000001

> <PUBCHEM_MMFF94_ENERGY>
91.4059

> <PUBCHEM_FEATURE_SELFOVERLAP>
36.205

> <PUBCHEM_SHAPE_FINGERPRINT>
10 15 18114184163659952272
10366900 7 17632290160040776706
11315181 36 18341899610473954672
11578080 2 17678450862004261806
12011746 2 18273500070315378324
12107698 1 17168146762672450405
12166972 35 18336267937095822445
12236239 1 16805322193445489576
12403259 415 18339920510612631720
12507557 5 18409733975521656553
12516196 113 17704072893161823160
12596602 18 15936695938502117892
12788726 201 16629690526940831307
12838862 33 18272073990189991689
13224815 77 18272653454482621947
13402501 40 18342458153220938568
13533116 47 18130788893942624054
15131766 46 17316212608461128716
15196674 1 18271809080844080362
15238133 3 16009036025138877420
15788980 27 17749391481145719072
1601671 61 18334575742077851764
17349148 13 18344144782625353936
17980427 23 16370732525521674647
18608769 82 18339364162741551075
18681886 176 18341048626991403752
18769570 83 16877941586043031181
18927931 339 17703800240290375389
19489759 90 17603585231596854025
200 152 17346878931802746713
20511986 3 18336251402030622818
20645477 56 18334012787919120691
21033648 144 18341892948942677423
21033648 29 18270388512263995376
21033650 10 16517387460903368365
21267235 1 18200324328085411883
21279426 13 18198064672797193174
21709351 56 18410570729576816700
21859007 373 18190438542358888040
23402539 116 17846495963007249918
23536379 177 17095521786353680232
23557571 272 17967817128779153869
23559900 14 18130500933412160344
23569914 152 16549185186850027621
23569943 247 16628581093997488054
2838139 119 17676477337865142277
335352 9 18272091616651267788
34797466 226 16415483757648965088
34934 24 18343018874297868787
350125 39 18411706512203426512
3545911 37 18411703183888712683
4015057 19 17774429607547723353
5104073 3 18342176730079456194
5283173 99 18262513698037801133
5385378 56 18339367353179663051
542803 24 17385725811530859578
5486654 2 18201726167182966138
59755656 215 18343309149725664758
59755656 520 18272931635530796095
7226269 152 18411417314960089520

> <PUBCHEM_SHAPE_MULTIPOLES>
525.11
14.83
1.95
1.3
8.28
0.8
0.27
-3.74
0.63
-0.91
0.26
-0.31
-0.56
1.14

> <PUBCHEM_SHAPE_SELFOVERLAP>
1121.387

> <PUBCHEM_SHAPE_VOLUME>
289.8

> <PUBCHEM_COORDINATE_TYPE>
2
5
10

$$$$
