4413
  -OEChem-05262008453D

 43 45  0     0  0  0  0  0  0999 V2000
    0.5434    0.1596    0.4734 O   0  0  0  0  0  0  0  0  0  0  0  0
    0.6532    0.0837   -1.8534 O   0  0  0  0  0  0  0  0  0  0  0  0
   -8.1471   -1.0575   -0.0121 N   0  0  0  0  0  0  0  0  0  0  0  0
   -7.7521    1.2447   -0.0812 N   0  0  0  0  0  0  0  0  0  0  0  0
    6.7384   -0.7398   -0.0717 N   0  0  0  0  0  0  0  0  0  0  0  0
    8.7882    0.0312    0.7405 N   0  0  0  0  0  0  0  0  0  0  0  0
    6.9671    1.3624    1.0857 N   0  0  0  0  0  0  0  0  0  0  0  0
   -3.5767    0.7399    0.1976 C   0  0  0  0  0  0  0  0  0  0  0  0
   -3.0507   -0.5715    0.2804 C   0  0  0  0  0  0  0  0  0  0  0  0
   -4.9669    0.9177    0.1057 C   0  0  0  0  0  0  0  0  0  0  0  0
   -1.6606   -0.7494    0.3721 C   0  0  0  0  0  0  0  0  0  0  0  0
   -5.8261   -0.1814    0.0957 C   0  0  0  0  0  0  0  0  0  0  0  0
   -3.9303   -1.6662    0.2689 C   0  0  0  0  0  0  0  0  0  0  0  0
   -2.6971    1.8345    0.2090 C   0  0  0  0  0  0  0  0  0  0  0  0
   -0.8015    0.3498    0.3822 C   0  0  0  0  0  0  0  0  0  0  0  0
   -5.3087   -1.4709    0.1772 C   0  0  0  0  0  0  0  0  0  0  0  0
   -1.3188    1.6392    0.3008 C   0  0  0  0  0  0  0  0  0  0  0  0
   -7.2633    0.0199    0.0002 C   0  0  0  0  0  0  0  0  0  0  0  0
    2.6512   -0.1734   -0.5776 C   0  0  0  0  0  0  0  0  0  0  0  0
    1.1911    0.0307   -0.7575 C   0  0  0  0  0  0  0  0  0  0  0  0
    3.5137    0.2931   -1.5482 C   0  0  0  0  0  0  0  0  0  0  0  0
    3.0993   -0.8211    0.5552 C   0  0  0  0  0  0  0  0  0  0  0  0
    5.3637   -0.5485   -0.2418 C   0  0  0  0  0  0  0  0  0  0  0  0
    4.8851    0.1034   -1.3783 C   0  0  0  0  0  0  0  0  0  0  0  0
    4.4708   -1.0106    0.7250 C   0  0  0  0  0  0  0  0  0  0  0  0
    7.4345    0.1806    0.5524 C   0  0  0  0  0  0  0  0  0  0  0  0
   -5.3598    1.9308    0.0426 H   0  0  0  0  0  0  0  0  0  0  0  0
   -1.2407   -1.7517    0.4375 H   0  0  0  0  0  0  0  0  0  0  0  0
   -3.5473   -2.6828    0.3314 H   0  0  0  0  0  0  0  0  0  0  0  0
   -3.0786    2.8516    0.1465 H   0  0  0  0  0  0  0  0  0  0  0  0
   -5.9307   -2.3592    0.1733 H   0  0  0  0  0  0  0  0  0  0  0  0
   -0.6547    2.4994    0.3090 H   0  0  0  0  0  0  0  0  0  0  0  0
    3.1534    0.8053   -2.4353 H   0  0  0  0  0  0  0  0  0  0  0  0
    2.4235   -1.2013    1.3153 H   0  0  0  0  0  0  0  0  0  0  0  0
    5.5730    0.4676   -2.1370 H   0  0  0  0  0  0  0  0  0  0  0  0
    4.8339   -1.5227    1.6123 H   0  0  0  0  0  0  0  0  0  0  0  0
   -9.1467   -0.8966   -0.0809 H   0  0  0  0  0  0  0  0  0  0  0  0
   -7.8582   -2.0260    0.0459 H   0  0  0  0  0  0  0  0  0  0  0  0
   -8.7744    1.1801   -0.1420 H   0  0  0  0  0  0  0  0  0  0  0  0
    9.2765   -0.7906    0.4016 H   0  0  0  0  0  0  0  0  0  0  0  0
    9.3378    0.7356    1.2204 H   0  0  0  0  0  0  0  0  0  0  0  0
    7.5936    2.0091    1.5526 H   0  0  0  0  0  0  0  0  0  0  0  0
    5.9901    1.6283    1.0344 H   0  0  0  0  0  0  0  0  0  0  0  0
  1 15  1  0  0  0  0
  1 20  1  0  0  0  0
  2 20  2  0  0  0  0
  3 18  1  0  0  0  0
  3 37  1  0  0  0  0
  3 38  1  0  0  0  0
  4 18  2  0  0  0  0
  4 39  1  0  0  0  0
  5 23  1  0  0  0  0
  5 26  2  0  0  0  0
  6 26  1  0  0  0  0
  6 40  1  0  0  0  0
  6 41  1  0  0  0  0
  7 26  1  0  0  0  0
  7 42  1  0  0  0  0
  7 43  1  0  0  0  0
  8  9  2  0  0  0  0
  8 10  1  0  0  0  0
  8 14  1  0  0  0  0
  9 11  1  0  0  0  0
  9 13  1  0  0  0  0
 10 12  2  0  0  0  0
 10 27  1  0  0  0  0
 11 15  2  0  0  0  0
 11 28  1  0  0  0  0
 12 16  1  0  0  0  0
 12 18  1  0  0  0  0
 13 16  2  0  0  0  0
 13 29  1  0  0  0  0
 14 17  2  0  0  0  0
 14 30  1  0  0  0  0
 15 17  1  0  0  0  0
 16 31  1  0  0  0  0
 17 32  1  0  0  0  0
 19 20  1  0  0  0  0
 19 21  2  0  0  0  0
 19 22  1  0  0  0  0
 21 24  1  0  0  0  0
 21 33  1  0  0  0  0
 22 25  2  0  0  0  0
 22 34  1  0  0  0  0
 23 24  2  0  0  0  0
 23 25  1  0  0  0  0
 24 35  1  0  0  0  0
 25 36  1  0  0  0  0
M  END
> <PUBCHEM_COMPOUND_CID>
4413

> <PUBCHEM_CONFORMER_RMSD>
0.8

> <PUBCHEM_CONFORMER_DIVERSEORDER>
1
45
54
22
63
52
39
8
69
74
43
12
66
73
51
35
40
6
71
47
13
61
11
70
56
50
26
42
4
67
34
75
46
10
60
65
32
5
55
64
14
3
31
25
44
17
41
68
29
2
48
16
19
57
37
49
7
59
58
30
20
9
27
21
28
72
53
38
62
33
15
23
36
18
24

> <PUBCHEM_MMFF94_PARTIAL_CHARGES>
41
1 -0.23
10 -0.15
11 -0.15
12 0.09
13 -0.15
14 -0.15
15 0.08
16 -0.15
17 -0.15
18 0.41
19 0.09
2 -0.57
20 0.63
21 -0.15
22 -0.15
23 0.18
24 -0.15
25 -0.15
26 0.55
27 0.15
28 0.15
29 0.15
3 -0.85
30 0.15
31 0.15
32 0.15
33 0.15
34 0.15
35 0.15
36 0.15
37 0.4
38 0.4
39 0.4
4 -0.85
40 0.4
41 0.4
42 0.4
43 0.4
5 -0.63
6 -0.85
7 -0.85

> <PUBCHEM_EFFECTIVE_ROTOR_COUNT>
5

> <PUBCHEM_PHARMACOPHORE_FEATURES>
10
1 2 acceptor
1 3 donor
1 4 donor
1 6 donor
1 7 donor
3 3 4 18 cation
4 5 6 7 26 cation
6 19 21 22 23 24 25 rings
6 8 9 10 12 13 16 rings
6 8 9 11 14 15 17 rings

> <PUBCHEM_HEAVY_ATOM_COUNT>
26

> <PUBCHEM_ATOM_DEF_STEREO_COUNT>
0

> <PUBCHEM_ATOM_UDEF_STEREO_COUNT>
0

> <PUBCHEM_BOND_DEF_STEREO_COUNT>
0

> <PUBCHEM_BOND_UDEF_STEREO_COUNT>
0

> <PUBCHEM_ISOTOPIC_ATOM_COUNT>
0

> <PUBCHEM_COMPONENT_COUNT>
1

> <PUBCHEM_CACTVS_TAUTO_COUNT>
3

> <PUBCHEM_CONFORMER_ID>
0000113D00000001

> <PUBCHEM_MMFF94_ENERGY>
98.9801

> <PUBCHEM_FEATURE_SELFOVERLAP>
50.871

> <PUBCHEM_SHAPE_FINGERPRINT>
10 15 17989485234792940006
106641 1 17418091039842662790
10670039 82 10881670317759532199
11135926 11 17749101193440163771
11315181 36 17846781810999114123
11408170 108 16661197045984131698
11524674 6 16988842787745703735
11638347 137 18341613686259459978
12166972 35 17749114408901345285
12236239 1 17822015311340905159
12516196 113 18202284697209052992
12838862 33 18337657668733355967
13533116 47 18113898217353612282
13914758 101 16732980895063425245
14150022 121 16558478496110502689
14251764 18 17967253091581678718
14251764 46 17822012007941426778
15131766 46 15143243362876073830
15183329 4 16370722630301788411
15419008 47 17846493720977079616
15716309 27 17561362872482794382
15840311 113 18272089436127329404
17093844 174 18412547609525590329
18006028 8 18131632283864447353
20511986 3 18114169818131774898
21095086 128 11671785962048478620
21267235 1 18337396033102031787
22224240 67 16559029393773715350
23402539 116 18407762538752291759
23536379 177 17385445414933857615
23559900 14 18338795732035313721
249057 3 16950286230041114467
29717793 49 18186528687262185422
3004659 81 18186804690323732709
335352 9 18410290312401763789
34797466 226 17846502534914056204
4073 2 16733277853449868890
4325135 7 18259704493009605006
5283156 175 18186520986227424994
59682541 35 17489584592979349410
59755656 520 15140965088682846339
67856867 119 18188777261640028724
9663363 56 18273212002827657857

> <PUBCHEM_SHAPE_MULTIPOLES>
498.42
24.28
1.4
1.05
9.25
0.14
-0.35
-1.11
3.52
-1.54
0.22
1.51
0.1
0.07

> <PUBCHEM_SHAPE_SELFOVERLAP>
1097.619

> <PUBCHEM_SHAPE_VOLUME>
265.3

> <PUBCHEM_COORDINATE_TYPE>
2
5
10

$$$$
