443635
  -OEChem-05262008443D

 30 32  0     0  0  0  0  0  0999 V2000
    3.1851   -2.0848    0.5472 O   0  0  0  0  0  0  0  0  0  0  0  0
   -4.7872    0.8097    0.5523 O   0  0  0  0  0  0  0  0  0  0  0  0
   -3.2742    2.1234   -0.5208 O   0  0  0  0  0  0  0  0  0  0  0  0
    0.7593   -1.1378   -0.0101 N   0  0  0  0  0  0  0  0  0  0  0  0
   -0.7697    1.1528    0.0113 N   0  0  0  0  0  0  0  0  0  0  0  0
    1.3465    0.0687    0.0274 C   0  0  0  0  0  0  0  0  0  0  0  0
    0.5701    1.2320    0.0383 C   0  0  0  0  0  0  0  0  0  0  0  0
   -1.3570   -0.0537   -0.0263 C   0  0  0  0  0  0  0  0  0  0  0  0
   -0.5805   -1.2170   -0.0371 C   0  0  0  0  0  0  0  0  0  0  0  0
    2.7353    0.1780    0.0559 C   0  0  0  0  0  0  0  0  0  0  0  0
   -2.7458   -0.1629   -0.0548 C   0  0  0  0  0  0  0  0  0  0  0  0
    1.2040    2.4722    0.0775 C   0  0  0  0  0  0  0  0  0  0  0  0
    3.3634    1.4215    0.0951 C   0  0  0  0  0  0  0  0  0  0  0  0
   -1.2144   -2.4572   -0.0762 C   0  0  0  0  0  0  0  0  0  0  0  0
    2.5935    2.5749    0.1060 C   0  0  0  0  0  0  0  0  0  0  0  0
   -3.3737   -1.4064   -0.0939 C   0  0  0  0  0  0  0  0  0  0  0  0
   -2.6039   -2.5599   -0.1047 C   0  0  0  0  0  0  0  0  0  0  0  0
    3.5754   -1.0142    0.0455 C   0  0  0  0  0  0  0  0  0  0  0  0
   -3.5863    1.0289   -0.0467 C   0  0  0  0  0  0  0  0  0  0  0  0
    4.9602   -0.9682   -0.5861 C   0  0  0  0  0  0  0  0  0  0  0  0
    0.6102    3.3841    0.0873 H   0  0  0  0  0  0  0  0  0  0  0  0
    4.4440    1.5211    0.1337 H   0  0  0  0  0  0  0  0  0  0  0  0
   -0.6206   -3.3691   -0.0858 H   0  0  0  0  0  0  0  0  0  0  0  0
    3.0678    3.5509    0.1402 H   0  0  0  0  0  0  0  0  0  0  0  0
   -4.4548   -1.5070   -0.1316 H   0  0  0  0  0  0  0  0  0  0  0  0
   -3.0782   -3.5359   -0.1386 H   0  0  0  0  0  0  0  0  0  0  0  0
    5.6949   -0.6569    0.1604 H   0  0  0  0  0  0  0  0  0  0  0  0
    4.9753   -0.2908   -1.4442 H   0  0  0  0  0  0  0  0  0  0  0  0
    5.2166   -1.9665   -0.9538 H   0  0  0  0  0  0  0  0  0  0  0  0
   -5.3474    1.6150    0.5533 H   0  0  0  0  0  0  0  0  0  0  0  0
  1 18  2  0  0  0  0
  2 19  1  0  0  0  0
  2 30  1  0  0  0  0
  3 19  2  0  0  0  0
  4  6  1  0  0  0  0
  4  9  2  0  0  0  0
  5  7  1  0  0  0  0
  5  8  2  0  0  0  0
  6  7  1  0  0  0  0
  6 10  2  0  0  0  0
  7 12  2  0  0  0  0
  8  9  1  0  0  0  0
  8 11  1  0  0  0  0
  9 14  1  0  0  0  0
 10 13  1  0  0  0  0
 10 18  1  0  0  0  0
 11 16  2  0  0  0  0
 11 19  1  0  0  0  0
 12 15  1  0  0  0  0
 12 21  1  0  0  0  0
 13 15  2  0  0  0  0
 13 22  1  0  0  0  0
 14 17  2  0  0  0  0
 14 23  1  0  0  0  0
 15 24  1  0  0  0  0
 16 17  1  0  0  0  0
 16 25  1  0  0  0  0
 17 26  1  0  0  0  0
 18 20  1  0  0  0  0
 20 27  1  0  0  0  0
 20 28  1  0  0  0  0
 20 29  1  0  0  0  0
M  END
> <PUBCHEM_COMPOUND_CID>
443635

> <PUBCHEM_CONFORMER_RMSD>
0.6

> <PUBCHEM_CONFORMER_DIVERSEORDER>
1
3
2

> <PUBCHEM_MMFF94_PARTIAL_CHARGES>
27
1 -0.57
10 0.09
11 0.09
12 -0.15
13 -0.15
14 -0.15
15 -0.15
16 -0.15
17 -0.15
18 0.42
19 0.63
2 -0.65
20 0.06
21 0.15
22 0.15
23 0.15
24 0.15
25 0.15
26 0.15
3 -0.57
30 0.5
4 -0.62
5 -0.62
6 0.31
7 0.31
8 0.31
9 0.31

> <PUBCHEM_EFFECTIVE_ROTOR_COUNT>
2

> <PUBCHEM_PHARMACOPHORE_FEATURES>
9
1 1 acceptor
1 2 acceptor
1 3 acceptor
1 4 acceptor
1 5 acceptor
3 2 3 19 anion
6 4 5 6 7 8 9 rings
6 6 7 10 12 13 15 rings
6 8 9 11 14 16 17 rings

> <PUBCHEM_HEAVY_ATOM_COUNT>
20

> <PUBCHEM_ATOM_DEF_STEREO_COUNT>
0

> <PUBCHEM_ATOM_UDEF_STEREO_COUNT>
0

> <PUBCHEM_BOND_DEF_STEREO_COUNT>
0

> <PUBCHEM_BOND_UDEF_STEREO_COUNT>
0

> <PUBCHEM_ISOTOPIC_ATOM_COUNT>
0

> <PUBCHEM_COMPONENT_COUNT>
1

> <PUBCHEM_CACTVS_TAUTO_COUNT>
2

> <PUBCHEM_CONFORMER_ID>
0006C4F300000001

> <PUBCHEM_MMFF94_ENERGY>
69.7901

> <PUBCHEM_FEATURE_SELFOVERLAP>
45.821

> <PUBCHEM_SHAPE_FINGERPRINT>
10062212 137 18201994443572481463
10608611 8 18339640169359503001
10616163 171 18195529422332637318
10967382 1 18266739086662613130
11578080 2 17201624774060558875
116883 192 18200321992145033172
12403259 226 18339919428539361741
12553582 1 18337381635527837986
13140716 1 18411698811332346339
14178342 30 18050551126556340376
14223421 5 18194118748834800010
14790565 3 17979083686689983672
14866123 147 17263576409162462394
15099037 51 18339361864026290046
15196674 1 18411701027535431750
15442244 35 18411134753430310690
15475509 8 17699596665587844308
15536298 74 18342175622114854552
16945 1 18335969900708757504
17349148 13 17917428688004345717
17492 89 18267302212815961678
17804303 29 18410579491341761783
1813 80 17240196655881359428
18186145 218 18334005103521151236
19591789 44 17978229352979292006
20510252 161 18198063775581551579
20645477 70 18269835474837039390
20691752 17 17604139424006398602
21267235 1 18410864286291814470
21501502 16 18339641268976443999
221490 88 18265058101320082418
2334 1 18267301113176784898
23366157 5 18041837449915035836
23402539 116 18200021855197954246
23463225 33 18410855481819373590
23558518 356 18116996791492025843
23559900 14 18272087206484745808
23622692 118 18129086999813021519
238 59 17177667249363790653
2748010 2 18338794636311783164
3004659 81 18188497853181079246
335352 9 18411700941620262021
34934 24 18410569579222030178
350125 39 18410298029846032339
4214541 1 18411982485321710735
495365 180 17489573585262798776
5104073 3 18411418457357918306
58051976 100 18408604777264709359
69090 78 18411978079265507263
7364860 26 18269837691456472912
74978 22 18410854386407456322
7832392 63 18410852187616302882
8809292 202 18408888442484700427
9709674 26 18265897054214128242
9981440 41 17616246331350710704

> <PUBCHEM_SHAPE_MULTIPOLES>
384.02
8.15
2.95
0.65
0.47
0.12
-0.01
-0.46
-0.21
0.02
0
0.06
-0.02
0.08

> <PUBCHEM_SHAPE_SELFOVERLAP>
867.612

> <PUBCHEM_SHAPE_VOLUME>
201

> <PUBCHEM_COORDINATE_TYPE>
2
5
10

$$$$
