4756
  -OEChem-05262008433D

 27 28  0     0  0  0  0  0  0999 V2000
    3.3068   -0.9855    0.0736 N   0  0  0  0  0  0  0  0  0  0  0  0
   -0.1622    0.1212   -0.5561 N   0  0  0  0  0  0  0  0  0  0  0  0
   -0.7796    0.1571    0.5343 N   0  0  0  0  0  0  0  0  0  0  0  0
    1.3121   -2.2368   -0.2088 N   0  0  0  0  0  0  0  0  0  0  0  0
    5.3052    0.2813    0.3556 N   0  0  0  0  0  0  0  0  0  0  0  0
    1.2235    0.1634   -0.3255 C   0  0  0  0  0  0  0  0  0  0  0  0
    1.9735   -0.9845   -0.1506 C   0  0  0  0  0  0  0  0  0  0  0  0
    1.8717    1.3888   -0.2685 C   0  0  0  0  0  0  0  0  0  0  0  0
    3.2426    1.4286   -0.0396 C   0  0  0  0  0  0  0  0  0  0  0  0
    3.9082    0.2243    0.1235 C   0  0  0  0  0  0  0  0  0  0  0  0
   -2.1582    0.1154    0.3054 C   0  0  0  0  0  0  0  0  0  0  0  0
   -2.8186   -1.1119    0.2466 C   0  0  0  0  0  0  0  0  0  0  0  0
   -2.8732    1.3009    0.1358 C   0  0  0  0  0  0  0  0  0  0  0  0
   -4.1940   -1.1536    0.0182 C   0  0  0  0  0  0  0  0  0  0  0  0
   -4.2487    1.2592   -0.0924 C   0  0  0  0  0  0  0  0  0  0  0  0
   -4.9091    0.0320   -0.1513 C   0  0  0  0  0  0  0  0  0  0  0  0
    1.3221    2.3166   -0.4008 H   0  0  0  0  0  0  0  0  0  0  0  0
    3.7598    2.3815    0.0075 H   0  0  0  0  0  0  0  0  0  0  0  0
   -2.2702   -2.0411    0.3781 H   0  0  0  0  0  0  0  0  0  0  0  0
   -2.3679    2.2622    0.1806 H   0  0  0  0  0  0  0  0  0  0  0  0
   -4.7082   -2.1091   -0.0276 H   0  0  0  0  0  0  0  0  0  0  0  0
   -4.8055    2.1823   -0.2243 H   0  0  0  0  0  0  0  0  0  0  0  0
   -5.9801   -0.0004   -0.3291 H   0  0  0  0  0  0  0  0  0  0  0  0
    0.6294   -2.3702    0.5323 H   0  0  0  0  0  0  0  0  0  0  0  0
    0.9102   -2.4421   -1.1195 H   0  0  0  0  0  0  0  0  0  0  0  0
    5.7883   -0.6014    0.4677 H   0  0  0  0  0  0  0  0  0  0  0  0
    5.8236    1.0679   -0.0159 H   0  0  0  0  0  0  0  0  0  0  0  0
  1  7  1  0  0  0  0
  1 10  2  0  0  0  0
  2  3  2  0  0  0  0
  2  6  1  0  0  0  0
  3 11  1  0  0  0  0
  4  7  1  0  0  0  0
  4 24  1  0  0  0  0
  4 25  1  0  0  0  0
  5 10  1  0  0  0  0
  5 26  1  0  0  0  0
  5 27  1  0  0  0  0
  6  7  2  0  0  0  0
  6  8  1  0  0  0  0
  8  9  2  0  0  0  0
  8 17  1  0  0  0  0
  9 10  1  0  0  0  0
  9 18  1  0  0  0  0
 11 12  2  0  0  0  0
 11 13  1  0  0  0  0
 12 14  1  0  0  0  0
 12 19  1  0  0  0  0
 13 15  2  0  0  0  0
 13 20  1  0  0  0  0
 14 16  2  0  0  0  0
 14 21  1  0  0  0  0
 15 16  1  0  0  0  0
 15 22  1  0  0  0  0
 16 23  1  0  0  0  0
M  END
> <PUBCHEM_COMPOUND_CID>
4756

> <PUBCHEM_CONFORMER_RMSD>
0.6

> <PUBCHEM_CONFORMER_DIVERSEORDER>
1
3
2

> <PUBCHEM_MMFF94_PARTIAL_CHARGES>
27
1 -0.62
10 0.41
11 0.18
12 -0.15
13 -0.15
14 -0.15
15 -0.15
16 -0.15
17 0.15
18 0.15
19 0.15
2 -0.18
20 0.15
21 0.15
22 0.15
23 0.15
24 0.4
25 0.4
26 0.4
27 0.4
3 -0.18
4 -0.9
5 -0.9
6 0.18
7 0.41
8 -0.15
9 -0.15

> <PUBCHEM_EFFECTIVE_ROTOR_COUNT>
2

> <PUBCHEM_PHARMACOPHORE_FEATURES>
6
1 4 cation
1 4 donor
1 5 donor
3 1 5 10 cation
6 1 6 7 8 9 10 rings
6 11 12 13 14 15 16 rings

> <PUBCHEM_HEAVY_ATOM_COUNT>
16

> <PUBCHEM_ATOM_DEF_STEREO_COUNT>
0

> <PUBCHEM_ATOM_UDEF_STEREO_COUNT>
0

> <PUBCHEM_BOND_DEF_STEREO_COUNT>
0

> <PUBCHEM_BOND_UDEF_STEREO_COUNT>
0

> <PUBCHEM_ISOTOPIC_ATOM_COUNT>
0

> <PUBCHEM_COMPONENT_COUNT>
1

> <PUBCHEM_CACTVS_TAUTO_COUNT>
12

> <PUBCHEM_CONFORMER_ID>
0000129400000001

> <PUBCHEM_MMFF94_ENERGY>
65.6696

> <PUBCHEM_FEATURE_SELFOVERLAP>
30.446

> <PUBCHEM_SHAPE_FINGERPRINT>
10014705 185 18260264127860398573
10608611 8 18409166593494561445
10616163 171 18340488966983567551
11370993 70 18409728469595518859
11471102 20 18410573968351468148
11615757 297 17489593389240956073
12107183 9 17761492482788101609
12236239 1 17846778511804964388
12500047 106 18411414016778503691
12507557 5 18342737437801758313
13167823 11 18410009948819503131
14251717 144 18410293609881755022
14415576 193 18408327700149854604
15196674 1 18410856542470762218
15375358 24 18334297565267077507
15442244 35 18051134696304812665
15536298 74 18341615875743169695
17802600 8 18410853274180173413
17834072 33 18336548304234338236
18186145 218 18342188725875412793
18522853 276 18342739615413324801
19050596 39 18411704300664625137
200 152 18202280312448136405
20279233 1 18260838093935227779
20645477 56 18260547780496428005
20645477 70 18342740663285287351
21267235 1 18410583893736162935
21709351 56 18408316709317962532
22854114 59 18411138043296229032
23402539 116 18260541238775582245
23402655 69 18412826871702827101
23559900 14 18270116795094583330
26918003 58 18335138713142119155
300161 21 18341045238404735553
33824 294 18408603634961904490
351380 180 18408319999210124273
3545911 37 18410576176022784405
42 15 18333170569958789061
4214541 1 18409449172351629165
5104073 3 18410576158652856203
542803 24 17458067070699426325
58051976 378 18343302561250912679
69090 78 18408884044865580579
77779 3 18410294713814827149
9709674 26 18410582781682966391

> <PUBCHEM_SHAPE_MULTIPOLES>
304.37
10.49
1.63
0.66
0.71
0.31
0
-0.99
0.51
-0.03
-0.07
0.03
-0.02
0.06

> <PUBCHEM_SHAPE_SELFOVERLAP>
655.467

> <PUBCHEM_SHAPE_VOLUME>
165.2

> <PUBCHEM_COORDINATE_TYPE>
2
5
10

$$$$
