6708713
  -OEChem-05262008433D

 83 87  0     1  0  0  0  0  0999 V2000
   -7.6888    2.6820    0.9691 O   0  0  0  0  0  0  0  0  0  0  0  0
   -5.5601    3.2772    1.5263 O   0  0  0  0  0  0  0  0  0  0  0  0
    4.8696    2.1714   -0.1032 O   0  0  0  0  0  0  0  0  0  0  0  0
    6.1092   -0.1402    0.7579 O   0  0  0  0  0  0  0  0  0  0  0  0
    5.6268    1.7221   -2.2722 O   0  0  0  0  0  0  0  0  0  0  0  0
    5.3064    0.2351    2.9246 O   0  0  0  0  0  0  0  0  0  0  0  0
   -2.2236   -0.1756   -0.1322 C   0  0  1  0  0  0  0  0  0  0  0  0
   -3.8066   -0.1378   -0.3190 C   0  0  1  0  0  0  0  0  0  0  0  0
   -1.6521   -1.5544   -0.6421 C   0  0  2  0  0  0  0  0  0  0  0  0
   -4.5688   -1.3959    0.2569 C   0  0  1  0  0  0  0  0  0  0  0  0
   -2.2630   -2.6897    0.2492 C   0  0  0  0  0  0  0  0  0  0  0  0
   -3.6360   -2.4506    0.8927 C   0  0  0  0  0  0  0  0  0  0  0  0
   -1.5630    0.9670   -0.9545 C   0  0  0  0  0  0  0  0  0  0  0  0
   -4.4128    1.2046    0.1901 C   0  0  0  0  0  0  0  0  0  0  0  0
   -0.0820   -1.5618   -0.6530 C   0  0  0  0  0  0  0  0  0  0  0  0
    0.6982   -0.3168   -1.1674 C   0  0  1  0  0  0  0  0  0  0  0  0
   -5.5887   -0.9525    1.3455 C   0  0  0  0  0  0  0  0  0  0  0  0
   -5.9509    1.2942    0.1784 C   0  0  2  0  0  0  0  0  0  0  0  0
   -0.0419    0.9989   -0.8143 C   0  0  0  0  0  0  0  0  0  0  0  0
   -1.8431    0.0801    1.3626 C   0  0  0  0  0  0  0  0  0  0  0  0
   -6.6088    0.0649    0.8313 C   0  0  0  0  0  0  0  0  0  0  0  0
   -2.0528   -1.8768   -2.1101 C   0  0  0  0  0  0  0  0  0  0  0  0
   -5.3868   -2.1252   -0.8469 C   0  0  0  0  0  0  0  0  0  0  0  0
    2.1483   -0.2572   -0.6085 C   0  0  0  0  0  0  0  0  0  0  0  0
    0.6119   -2.6606   -0.2859 C   0  0  0  0  0  0  0  0  0  0  0  0
    0.8726   -0.4031   -2.7063 C   0  0  0  0  0  0  0  0  0  0  0  0
   -6.4847    1.5293   -1.2416 C   0  0  0  0  0  0  0  0  0  0  0  0
   -6.3425    2.5244    0.9655 C   0  0  0  0  0  0  0  0  0  0  0  0
    2.0991   -2.7586   -0.2326 C   0  0  0  0  0  0  0  0  0  0  0  0
    2.7936   -1.4304   -0.1767 C   0  0  0  0  0  0  0  0  0  0  0  0
    2.8847    0.9452   -0.5804 C   0  0  0  0  0  0  0  0  0  0  0  0
    4.1234   -1.3844    0.2770 C   0  0  0  0  0  0  0  0  0  0  0  0
    4.2016    0.9840   -0.1167 C   0  0  0  0  0  0  0  0  0  0  0  0
    4.8210   -0.1813    0.3143 C   0  0  0  0  0  0  0  0  0  0  0  0
    4.8289   -2.6318    0.7156 C   0  0  0  0  0  0  0  0  0  0  0  0
    5.5753    2.4447   -1.2857 C   0  0  0  0  0  0  0  0  0  0  0  0
    6.2319    0.0823    2.1385 C   0  0  0  0  0  0  0  0  0  0  0  0
    6.2735    3.7674   -1.1718 C   0  0  0  0  0  0  0  0  0  0  0  0
    7.6808    0.1102    2.5257 C   0  0  0  0  0  0  0  0  0  0  0  0
   -3.9786   -0.1293   -1.4041 H   0  0  0  0  0  0  0  0  0  0  0  0
   -2.3087   -3.6257   -0.3245 H   0  0  0  0  0  0  0  0  0  0  0  0
   -1.5958   -2.9011    1.0954 H   0  0  0  0  0  0  0  0  0  0  0  0
   -3.4651   -2.1975    1.9466 H   0  0  0  0  0  0  0  0  0  0  0  0
   -4.1551   -3.4179    0.9568 H   0  0  0  0  0  0  0  0  0  0  0  0
   -1.9261    1.9440   -0.6154 H   0  0  0  0  0  0  0  0  0  0  0  0
   -1.8415    0.9088   -2.0116 H   0  0  0  0  0  0  0  0  0  0  0  0
   -4.0163    2.0365   -0.4043 H   0  0  0  0  0  0  0  0  0  0  0  0
   -4.0605    1.3785    1.2137 H   0  0  0  0  0  0  0  0  0  0  0  0
   -6.1292   -1.8249    1.7367 H   0  0  0  0  0  0  0  0  0  0  0  0
   -5.0588   -0.5239    2.2065 H   0  0  0  0  0  0  0  0  0  0  0  0
    0.3188    1.8193   -1.4496 H   0  0  0  0  0  0  0  0  0  0  0  0
    0.2035    1.3012    0.2127 H   0  0  0  0  0  0  0  0  0  0  0  0
   -2.5278   -0.3849    2.0714 H   0  0  0  0  0  0  0  0  0  0  0  0
   -1.8538    1.1511    1.5977 H   0  0  0  0  0  0  0  0  0  0  0  0
   -0.8398   -0.2848    1.6044 H   0  0  0  0  0  0  0  0  0  0  0  0
   -7.2869   -0.4298    0.1252 H   0  0  0  0  0  0  0  0  0  0  0  0
   -7.2403    0.3445    1.6843 H   0  0  0  0  0  0  0  0  0  0  0  0
   -1.8743   -1.0535   -2.8004 H   0  0  0  0  0  0  0  0  0  0  0  0
   -1.5021   -2.7466   -2.4903 H   0  0  0  0  0  0  0  0  0  0  0  0
   -3.1057   -2.1163   -2.2209 H   0  0  0  0  0  0  0  0  0  0  0  0
   -5.8792   -1.4291   -1.5300 H   0  0  0  0  0  0  0  0  0  0  0  0
   -4.7771   -2.8034   -1.4459 H   0  0  0  0  0  0  0  0  0  0  0  0
   -6.1695   -2.7538   -0.4041 H   0  0  0  0  0  0  0  0  0  0  0  0
    0.1016   -3.5771   -0.0080 H   0  0  0  0  0  0  0  0  0  0  0  0
   -0.0618   -0.2490   -3.2479 H   0  0  0  0  0  0  0  0  0  0  0  0
    1.5628    0.3650   -3.0778 H   0  0  0  0  0  0  0  0  0  0  0  0
    1.2814   -1.3734   -3.0137 H   0  0  0  0  0  0  0  0  0  0  0  0
   -6.1460    2.4938   -1.6391 H   0  0  0  0  0  0  0  0  0  0  0  0
   -6.1435    0.7558   -1.9351 H   0  0  0  0  0  0  0  0  0  0  0  0
   -7.5805    1.5326   -1.2761 H   0  0  0  0  0  0  0  0  0  0  0  0
    2.3302   -3.3314    0.6736 H   0  0  0  0  0  0  0  0  0  0  0  0
    2.4530   -3.3296   -1.0987 H   0  0  0  0  0  0  0  0  0  0  0  0
    2.4442    1.8734   -0.9349 H   0  0  0  0  0  0  0  0  0  0  0  0
   -7.9633    3.4752    1.4767 H   0  0  0  0  0  0  0  0  0  0  0  0
    4.6352   -3.4605    0.0263 H   0  0  0  0  0  0  0  0  0  0  0  0
    5.9180   -2.5241    0.7344 H   0  0  0  0  0  0  0  0  0  0  0  0
    4.5016   -2.9144    1.7215 H   0  0  0  0  0  0  0  0  0  0  0  0
    6.9895    3.7361   -0.3469 H   0  0  0  0  0  0  0  0  0  0  0  0
    6.8160    3.9724   -2.0990 H   0  0  0  0  0  0  0  0  0  0  0  0
    5.5382    4.5603   -1.0146 H   0  0  0  0  0  0  0  0  0  0  0  0
    8.1450   -0.8495    2.2858 H   0  0  0  0  0  0  0  0  0  0  0  0
    7.7654    0.2801    3.6027 H   0  0  0  0  0  0  0  0  0  0  0  0
    8.1864    0.9251    2.0020 H   0  0  0  0  0  0  0  0  0  0  0  0
  1 28  1  0  0  0  0
  1 74  1  0  0  0  0
  2 28  2  0  0  0  0
  3 33  1  0  0  0  0
  3 36  1  0  0  0  0
  4 34  1  0  0  0  0
  4 37  1  0  0  0  0
  5 36  2  0  0  0  0
  6 37  2  0  0  0  0
  7  8  1  0  0  0  0
  7  9  1  0  0  0  0
  7 13  1  0  0  0  0
  7 20  1  0  0  0  0
  8 10  1  0  0  0  0
  8 14  1  0  0  0  0
  8 40  1  0  0  0  0
  9 11  1  0  0  0  0
  9 15  1  0  0  0  0
  9 22  1  0  0  0  0
 10 12  1  0  0  0  0
 10 17  1  0  0  0  0
 10 23  1  0  0  0  0
 11 12  1  0  0  0  0
 11 41  1  0  0  0  0
 11 42  1  0  0  0  0
 12 43  1  0  0  0  0
 12 44  1  0  0  0  0
 13 19  1  0  0  0  0
 13 45  1  0  0  0  0
 13 46  1  0  0  0  0
 14 18  1  0  0  0  0
 14 47  1  0  0  0  0
 14 48  1  0  0  0  0
 15 16  1  0  0  0  0
 15 25  2  0  0  0  0
 16 19  1  0  0  0  0
 16 24  1  0  0  0  0
 16 26  1  0  0  0  0
 17 21  1  0  0  0  0
 17 49  1  0  0  0  0
 17 50  1  0  0  0  0
 18 21  1  0  0  0  0
 18 27  1  0  0  0  0
 18 28  1  0  0  0  0
 19 51  1  0  0  0  0
 19 52  1  0  0  0  0
 20 53  1  0  0  0  0
 20 54  1  0  0  0  0
 20 55  1  0  0  0  0
 21 56  1  0  0  0  0
 21 57  1  0  0  0  0
 22 58  1  0  0  0  0
 22 59  1  0  0  0  0
 22 60  1  0  0  0  0
 23 61  1  0  0  0  0
 23 62  1  0  0  0  0
 23 63  1  0  0  0  0
 24 30  1  0  0  0  0
 24 31  2  0  0  0  0
 25 29  1  0  0  0  0
 25 64  1  0  0  0  0
 26 65  1  0  0  0  0
 26 66  1  0  0  0  0
 26 67  1  0  0  0  0
 27 68  1  0  0  0  0
 27 69  1  0  0  0  0
 27 70  1  0  0  0  0
 29 30  1  0  0  0  0
 29 71  1  0  0  0  0
 29 72  1  0  0  0  0
 30 32  2  0  0  0  0
 31 33  1  0  0  0  0
 31 73  1  0  0  0  0
 32 34  1  0  0  0  0
 32 35  1  0  0  0  0
 33 34  2  0  0  0  0
 35 75  1  0  0  0  0
 35 76  1  0  0  0  0
 35 77  1  0  0  0  0
 36 38  1  0  0  0  0
 37 39  1  0  0  0  0
 38 78  1  0  0  0  0
 38 79  1  0  0  0  0
 38 80  1  0  0  0  0
 39 81  1  0  0  0  0
 39 82  1  0  0  0  0
 39 83  1  0  0  0  0
M  END
> <PUBCHEM_COMPOUND_CID>
6708713

> <PUBCHEM_CONFORMER_RMSD>
1

> <PUBCHEM_CONFORMER_DIVERSEORDER>
1
6
10
11
3
7
4
5
9
8
2

> <PUBCHEM_MMFF94_PARTIAL_CHARGES>
27
1 -0.65
15 -0.28
16 0.28
18 0.06
2 -0.57
24 -0.14
25 -0.29
28 0.66
29 0.28
3 -0.23
30 -0.14
31 -0.15
32 -0.14
33 0.08
34 0.08
35 0.14
36 0.66
37 0.66
38 0.06
39 0.06
4 -0.23
5 -0.57
6 -0.57
64 0.15
73 0.15
74 0.5
9 0.14

> <PUBCHEM_EFFECTIVE_ROTOR_COUNT>
6.8

> <PUBCHEM_PHARMACOPHORE_FEATURES>
10
1 1 acceptor
1 2 acceptor
1 5 acceptor
1 6 acceptor
3 1 2 28 anion
6 15 16 24 25 29 30 rings
6 24 30 31 32 33 34 rings
6 7 8 9 10 11 12 rings
6 7 9 13 15 16 19 rings
6 8 10 14 17 18 21 rings

> <PUBCHEM_HEAVY_ATOM_COUNT>
39

> <PUBCHEM_ATOM_DEF_STEREO_COUNT>
5

> <PUBCHEM_ATOM_UDEF_STEREO_COUNT>
1

> <PUBCHEM_BOND_DEF_STEREO_COUNT>
0

> <PUBCHEM_BOND_UDEF_STEREO_COUNT>
0

> <PUBCHEM_ISOTOPIC_ATOM_COUNT>
0

> <PUBCHEM_COMPONENT_COUNT>
1

> <PUBCHEM_CACTVS_TAUTO_COUNT>
1

> <PUBCHEM_CONFORMER_ID>
00665DE900000001

> <PUBCHEM_MMFF94_ENERGY>
175.014

> <PUBCHEM_FEATURE_SELFOVERLAP>
50.866

> <PUBCHEM_SHAPE_FINGERPRINT>
10 15 18187936105443356593
10439779 11 18337676433071211717
10554248 39 18341043038790695831
10906281 52 17895773892299867118
12107183 9 18265331703273924410
12422481 6 17967254161550768943
12788726 201 17703520887091319777
13668630 136 12324240534104825490
13782708 43 12540702543716835881
13811026 1 18186518818002007631
14347332 77 9079118838932492327
14790565 3 17975144441591289980
14951699 99 18335713761965997317
15021287 119 16877668946409764013
15238133 3 18272365421734305200
15475509 35 15792279429122933304
15510800 12 14274012148966741074
1577012 14 18335140929261140292
15840311 113 18265903463001361101
15968369 153 17346593079991605312
16112460 7 18040719216176312896
17980427 23 18186810214057760727
19053607 189 18342458127641409248
20511986 3 18334569170503770639
21033648 144 18335985282068274797
21033648 29 18131350821176396531
21792964 463 18042710405833621500
22122407 14 18341338871948681953
23522609 53 17895775005028888540
23559900 14 18198360467343302879
23569943 247 16516505742825096618
2838139 119 17775557629052072673
3663271 9 17968098676137202128
3918712 181 18272090521709953632
392239 28 17749098989857871986
394071 54 16443635700379295108
4073 2 18041850613446479611
4144715 1 18261689133368710131
4169191 19 18333732454987460725
504579 68 12895077259031733049
5104073 3 17967812799267250050
57527293 21 17458623449891266870
58083652 198 17531514481757769621
6086070 43 17703783756374704929
86090 222 14924783390364656248
999808 66 13840264762810470219

> <PUBCHEM_SHAPE_MULTIPOLES>
767.39
20.43
3.52
2
1.46
1.16
0.28
13.75
9.32
-0.37
-0.3
2.46
0.37
-3.01

> <PUBCHEM_SHAPE_SELFOVERLAP>
1654.654

> <PUBCHEM_SHAPE_VOLUME>
414.8

> <PUBCHEM_COORDINATE_TYPE>
2
5
10

$$$$
