98888
  -OEChem-05262008443D

 24 24  0     0  0  0  0  0  0999 V2000
   -2.6056   -0.1778   -0.4713 N   0  0  0  0  0  0  0  0  0  0  0  0
    1.0240    0.4062    0.1572 N   0  0  0  0  0  0  0  0  0  0  0  0
    4.6744   -0.3188   -0.0390 N   0  0  0  0  0  0  0  0  0  0  0  0
   -3.8131    0.5240   -0.0618 C   0  0  0  0  0  0  0  0  0  0  0  0
   -3.3938   -0.7509    0.6099 C   0  0  0  0  0  0  0  0  0  0  0  0
   -1.4202    0.4888    0.0563 C   0  0  0  0  0  0  0  0  0  0  0  0
   -0.1624   -0.2704   -0.3555 C   0  0  0  0  0  0  0  0  0  0  0  0
    2.2347   -0.3002   -0.2361 C   0  0  0  0  0  0  0  0  0  0  0  0
    3.4622    0.3991    0.3402 C   0  0  0  0  0  0  0  0  0  0  0  0
   -4.6396    0.4808   -0.7586 H   0  0  0  0  0  0  0  0  0  0  0  0
   -3.7160    1.4517    0.4872 H   0  0  0  0  0  0  0  0  0  0  0  0
   -3.0300   -0.7050    1.6279 H   0  0  0  0  0  0  0  0  0  0  0  0
   -3.9382   -1.6533    0.3625 H   0  0  0  0  0  0  0  0  0  0  0  0
   -1.3671    1.4996   -0.3722 H   0  0  0  0  0  0  0  0  0  0  0  0
   -1.4281    0.6209    1.1478 H   0  0  0  0  0  0  0  0  0  0  0  0
   -0.2089   -1.2951    0.0349 H   0  0  0  0  0  0  0  0  0  0  0  0
   -0.1147   -0.3291   -1.4503 H   0  0  0  0  0  0  0  0  0  0  0  0
    0.9733    0.4660    1.1739 H   0  0  0  0  0  0  0  0  0  0  0  0
    2.3104   -0.3289   -1.3303 H   0  0  0  0  0  0  0  0  0  0  0  0
    2.2004   -1.3360    0.1251 H   0  0  0  0  0  0  0  0  0  0  0  0
    3.4055    0.4437    1.4336 H   0  0  0  0  0  0  0  0  0  0  0  0
    3.5278    1.4293   -0.0274 H   0  0  0  0  0  0  0  0  0  0  0  0
    4.7349   -0.3760   -1.0551 H   0  0  0  0  0  0  0  0  0  0  0  0
    4.6205   -1.2813    0.2925 H   0  0  0  0  0  0  0  0  0  0  0  0
  1  4  1  0  0  0  0
  1  5  1  0  0  0  0
  1  6  1  0  0  0  0
  2  7  1  0  0  0  0
  2  8  1  0  0  0  0
  2 18  1  0  0  0  0
  3  9  1  0  0  0  0
  3 23  1  0  0  0  0
  3 24  1  0  0  0  0
  4  5  1  0  0  0  0
  4 10  1  0  0  0  0
  4 11  1  0  0  0  0
  5 12  1  0  0  0  0
  5 13  1  0  0  0  0
  6  7  1  0  0  0  0
  6 14  1  0  0  0  0
  6 15  1  0  0  0  0
  7 16  1  0  0  0  0
  7 17  1  0  0  0  0
  8  9  1  0  0  0  0
  8 19  1  0  0  0  0
  8 20  1  0  0  0  0
  9 21  1  0  0  0  0
  9 22  1  0  0  0  0
M  END
> <PUBCHEM_COMPOUND_CID>
98888

> <PUBCHEM_CONFORMER_RMSD>
0.6

> <PUBCHEM_CONFORMER_DIVERSEORDER>
1
36
32
23
44
34
5
40
22
9
33
13
11
38
42
45
14
2
35
19
25
3
18
37
39
16
15
21
30
31
4
26
41
28
29
43
24
8
10
7
17
12
27
20
6

> <PUBCHEM_MMFF94_PARTIAL_CHARGES>
16
1 -0.59
10 0.1
11 0.1
12 0.1
13 0.1
18 0.36
2 -0.9
23 0.36
24 0.36
3 -0.99
4 -0.04
5 -0.04
6 0.27
7 0.27
8 0.27
9 0.27

> <PUBCHEM_EFFECTIVE_ROTOR_COUNT>
5.6

> <PUBCHEM_PHARMACOPHORE_FEATURES>
5
1 1 cation
1 2 cation
1 2 donor
1 3 cation
1 3 donor

> <PUBCHEM_HEAVY_ATOM_COUNT>
9

> <PUBCHEM_ATOM_DEF_STEREO_COUNT>
0

> <PUBCHEM_ATOM_UDEF_STEREO_COUNT>
0

> <PUBCHEM_BOND_DEF_STEREO_COUNT>
0

> <PUBCHEM_BOND_UDEF_STEREO_COUNT>
0

> <PUBCHEM_ISOTOPIC_ATOM_COUNT>
0

> <PUBCHEM_COMPONENT_COUNT>
1

> <PUBCHEM_CACTVS_TAUTO_COUNT>
1

> <PUBCHEM_CONFORMER_ID>
0001824800000001

> <PUBCHEM_MMFF94_ENERGY>
1.1997

> <PUBCHEM_FEATURE_SELFOVERLAP>
25.373

> <PUBCHEM_SHAPE_FINGERPRINT>
11062470 55 18410855460133508005
14325111 11 18411418414413545167
190213 19 18412545413963877828
20279233 1 18343308058840810455
20645477 70 17773877501948881118
20719005 15 18131349721670030558
20828058 44 18259704510094580778
21293036 1 11025797600077534684
22485316 2 17676201373030479442

> <PUBCHEM_SHAPE_MULTIPOLES>
170.27
8.75
0.78
0.69
4.54
0.02
-0.02
0.38
-0.66
-0.3
-0.04
-0.13
0.03
0.25

> <PUBCHEM_SHAPE_SELFOVERLAP>
310.387

> <PUBCHEM_SHAPE_VOLUME>
108.1

> <PUBCHEM_COORDINATE_TYPE>
2
5
10

$$$$
