1013959
  -OEChem-05262008352D

 37 39  0     0  0  0  0  0  0999 V2000
    2.0000    1.4642    0.0000 Br  0  0  0  0  0  0  0  0  0  0  0  0
    9.8602   -2.0600    0.0000 O   0  0  0  0  0  0  0  0  0  0  0  0
    6.3961    2.9400    0.0000 O   0  0  0  0  0  0  0  0  0  0  0  0
    4.6641    2.9400    0.0000 O   0  0  0  0  0  0  0  0  0  0  0  0
    5.5301   -0.5600    0.0000 N   0  0  0  0  0  0  0  0  0  0  0  0
    4.6641    0.9400    0.0000 C   0  0  0  0  0  0  0  0  0  0  0  0
    6.3961   -0.0600    0.0000 C   0  0  0  0  0  0  0  0  0  0  0  0
    4.6641   -0.0600    0.0000 C   0  0  0  0  0  0  0  0  0  0  0  0
    5.5301    1.4400    0.0000 C   0  0  0  0  0  0  0  0  0  0  0  0
    7.2622   -0.5600    0.0000 C   0  0  0  0  0  0  0  0  0  0  0  0
    6.3961    0.9400    0.0000 C   0  0  0  0  0  0  0  0  0  0  0  0
    3.7702    1.4747    0.0000 C   0  0  0  0  0  0  0  0  0  0  0  0
    3.7702   -0.5947    0.0000 C   0  0  0  0  0  0  0  0  0  0  0  0
    8.1282   -0.0600    0.0000 C   0  0  0  0  0  0  0  0  0  0  0  0
    7.2622   -1.5600    0.0000 C   0  0  0  0  0  0  0  0  0  0  0  0
    8.9942   -1.5600    0.0000 C   0  0  0  0  0  0  0  0  0  0  0  0
    2.8641    0.9608    0.0000 C   0  0  0  0  0  0  0  0  0  0  0  0
    8.9942   -0.5600    0.0000 C   0  0  0  0  0  0  0  0  0  0  0  0
    8.1282   -2.0600    0.0000 C   0  0  0  0  0  0  0  0  0  0  0  0
    2.8641   -0.0808    0.0000 C   0  0  0  0  0  0  0  0  0  0  0  0
    5.5301    2.4400    0.0000 C   0  0  0  0  0  0  0  0  0  0  0  0
    9.8602   -3.0600    0.0000 C   0  0  0  0  0  0  0  0  0  0  0  0
   10.7263   -3.5600    0.0000 C   0  0  0  0  0  0  0  0  0  0  0  0
    6.9331    1.2500    0.0000 H   0  0  0  0  0  0  0  0  0  0  0  0
    3.7773    2.0946    0.0000 H   0  0  0  0  0  0  0  0  0  0  0  0
    3.7773   -1.2146    0.0000 H   0  0  0  0  0  0  0  0  0  0  0  0
    8.1282    0.5600    0.0000 H   0  0  0  0  0  0  0  0  0  0  0  0
    6.7252   -1.8700    0.0000 H   0  0  0  0  0  0  0  0  0  0  0  0
    9.5312   -0.2500    0.0000 H   0  0  0  0  0  0  0  0  0  0  0  0
    8.1282   -2.6800    0.0000 H   0  0  0  0  0  0  0  0  0  0  0  0
    2.3284   -0.3929    0.0000 H   0  0  0  0  0  0  0  0  0  0  0  0
    9.2497   -2.9523    0.0000 H   0  0  0  0  0  0  0  0  0  0  0  0
    9.6482   -3.6426    0.0000 H   0  0  0  0  0  0  0  0  0  0  0  0
   10.4163   -4.0969    0.0000 H   0  0  0  0  0  0  0  0  0  0  0  0
   11.2632   -3.8700    0.0000 H   0  0  0  0  0  0  0  0  0  0  0  0
   11.0363   -3.0231    0.0000 H   0  0  0  0  0  0  0  0  0  0  0  0
    6.3961    3.5600    0.0000 H   0  0  0  0  0  0  0  0  0  0  0  0
  1 17  1  0  0  0  0
  2 16  1  0  0  0  0
  2 22  1  0  0  0  0
  3 21  1  0  0  0  0
  3 37  1  0  0  0  0
  4 21  2  0  0  0  0
  5  7  2  0  0  0  0
  5  8  1  0  0  0  0
  6  8  2  0  0  0  0
  6  9  1  0  0  0  0
  6 12  1  0  0  0  0
  7 10  1  0  0  0  0
  7 11  1  0  0  0  0
  8 13  1  0  0  0  0
  9 11  2  0  0  0  0
  9 21  1  0  0  0  0
 10 14  2  0  0  0  0
 10 15  1  0  0  0  0
 11 24  1  0  0  0  0
 12 17  2  0  0  0  0
 12 25  1  0  0  0  0
 13 20  2  0  0  0  0
 13 26  1  0  0  0  0
 14 18  1  0  0  0  0
 14 27  1  0  0  0  0
 15 19  2  0  0  0  0
 15 28  1  0  0  0  0
 16 18  2  0  0  0  0
 16 19  1  0  0  0  0
 17 20  1  0  0  0  0
 18 29  1  0  0  0  0
 19 30  1  0  0  0  0
 20 31  1  0  0  0  0
 22 23  1  0  0  0  0
 22 32  1  0  0  0  0
 22 33  1  0  0  0  0
 23 34  1  0  0  0  0
 23 35  1  0  0  0  0
 23 36  1  0  0  0  0
M  END
> <PUBCHEM_COMPOUND_CID>
1013959

> <PUBCHEM_COMPOUND_CANONICALIZED>
1

> <PUBCHEM_CACTVS_COMPLEXITY>
411

> <PUBCHEM_CACTVS_HBOND_ACCEPTOR>
4

> <PUBCHEM_CACTVS_HBOND_DONOR>
1

> <PUBCHEM_CACTVS_ROTATABLE_BOND>
4

> <PUBCHEM_CACTVS_SUBSKEYS>
AAADccB6MAAAEAAAAAAAAAAAAAAAAAAAAAA8YIAAAAAAAACx9AAAHgBACAABrAyhngIyzvIIFgCoAyTyTACCiCAlIiQImCE2bPgMJvLEtZuGeSjkwBHI+5e82POOoAAgEAACAABAAEAgAAQAAAAAAAAAAA==

> <PUBCHEM_IUPAC_OPENEYE_NAME>
6-bromo-2-(4-ethoxyphenyl)quinoline-4-carboxylic acid

> <PUBCHEM_IUPAC_CAS_NAME>
6-bromo-2-(4-ethoxyphenyl)-4-quinolinecarboxylic acid

> <PUBCHEM_IUPAC_NAME_MARKUP>
6-bromo-2-(4-ethoxyphenyl)quinoline-4-carboxylic acid

> <PUBCHEM_IUPAC_NAME>
6-bromo-2-(4-ethoxyphenyl)quinoline-4-carboxylic acid

> <PUBCHEM_IUPAC_SYSTEMATIC_NAME>
6-bromanyl-2-(4-ethoxyphenyl)quinoline-4-carboxylic acid

> <PUBCHEM_IUPAC_TRADITIONAL_NAME>
6-bromo-2-p-phenetyl-cinchoninic acid

> <PUBCHEM_IUPAC_INCHI>
InChI=1S/C18H14BrNO3/c1-2-23-13-6-3-11(4-7-13)17-10-15(18(21)22)14-9-12(19)5-8-16(14)20-17/h3-10H,2H2,1H3,(H,21,22)

> <PUBCHEM_IUPAC_INCHIKEY>
OGFWPHFYEHXELV-UHFFFAOYSA-N

> <PUBCHEM_XLOGP3_AA>
4.4

> <PUBCHEM_EXACT_MASS>
371.01571

> <PUBCHEM_MOLECULAR_FORMULA>
C18H14BrNO3

> <PUBCHEM_MOLECULAR_WEIGHT>
372.2

> <PUBCHEM_OPENEYE_CAN_SMILES>
CCOC1=CC=C(C=C1)C2=NC3=C(C=C(C=C3)Br)C(=C2)C(=O)O

> <PUBCHEM_OPENEYE_ISO_SMILES>
CCOC1=CC=C(C=C1)C2=NC3=C(C=C(C=C3)Br)C(=C2)C(=O)O

> <PUBCHEM_CACTVS_TPSA>
59.4

> <PUBCHEM_MONOISOTOPIC_WEIGHT>
371.01571

> <PUBCHEM_TOTAL_CHARGE>
0

> <PUBCHEM_HEAVY_ATOM_COUNT>
23

> <PUBCHEM_ATOM_DEF_STEREO_COUNT>
0

> <PUBCHEM_ATOM_UDEF_STEREO_COUNT>
0

> <PUBCHEM_BOND_DEF_STEREO_COUNT>
0

> <PUBCHEM_BOND_UDEF_STEREO_COUNT>
0

> <PUBCHEM_ISOTOPIC_ATOM_COUNT>
0

> <PUBCHEM_COMPONENT_COUNT>
1

> <PUBCHEM_CACTVS_TAUTO_COUNT>
-1

> <PUBCHEM_COORDINATE_TYPE>
1
5
255

> <PUBCHEM_BONDANNOTATIONS>
10  14  8
10  15  8
12  17  8
13  20  8
14  18  8
15  19  8
16  18  8
16  19  8
17  20  8
5  7  8
5  8  8
6  12  8
6  8  8
6  9  8
7  11  8
8  13  8
9  11  8

$$$$
