10296883
  -OEChem-05262008352D

 55 60  0     0  0  0  0  0  0999 V2000
    2.9060   -1.3548    0.0000 O   0  0  0  0  0  0  0  0  0  0  0  0
    5.7538   -3.4239    0.0000 O   0  0  0  0  0  0  0  0  0  0  0  0
    6.3981    1.9239    0.0000 N   0  0  0  0  0  0  0  0  0  0  0  0
    8.1301    2.9239    0.0000 N   0  0  0  0  0  0  0  0  0  0  0  0
    5.5321    0.4239    0.0000 N   0  0  0  0  0  0  0  0  0  0  0  0
    4.6660    1.9239    0.0000 N   0  0  0  0  0  0  0  0  0  0  0  0
    4.1660   -2.6149    0.0000 N   0  0  0  0  0  0  0  0  0  0  0  0
    7.7266   -0.4066    0.0000 N   0  0  0  0  0  0  0  0  0  0  0  0
    6.3981    2.9239    0.0000 C   0  0  0  0  0  0  0  0  0  0  0  0
    7.2641    1.4239    0.0000 C   0  0  0  0  0  0  0  0  0  0  0  0
    7.2641    3.4239    0.0000 C   0  0  0  0  0  0  0  0  0  0  0  0
    8.1301    1.9239    0.0000 C   0  0  0  0  0  0  0  0  0  0  0  0
    5.5321    1.4239    0.0000 C   0  0  0  0  0  0  0  0  0  0  0  0
    8.9962    3.4239    0.0000 C   0  0  0  0  0  0  0  0  0  0  0  0
    4.6660   -0.0761    0.0000 C   0  0  0  0  0  0  0  0  0  0  0  0
    4.6660   -1.0761    0.0000 C   0  0  0  0  0  0  0  0  0  0  0  0
    5.4751   -1.6639    0.0000 C   0  0  0  0  0  0  0  0  0  0  0  0
    3.8000    0.4239    0.0000 C   0  0  0  0  0  0  0  0  0  0  0  0
    6.4261   -1.3548    0.0000 C   0  0  0  0  0  0  0  0  0  0  0  0
    3.8000    1.4239    0.0000 C   0  0  0  0  0  0  0  0  0  0  0  0
    7.2298   -1.9398    0.0000 C   0  0  0  0  0  0  0  0  0  0  0  0
    3.8570   -1.6639    0.0000 C   0  0  0  0  0  0  0  0  0  0  0  0
    5.1660   -2.6149    0.0000 C   0  0  0  0  0  0  0  0  0  0  0  0
    8.0378   -1.3507    0.0000 C   0  0  0  0  0  0  0  0  0  0  0  0
    6.7325   -0.4091    0.0000 C   0  0  0  0  0  0  0  0  0  0  0  0
    2.9061   -0.1107    0.0000 C   0  0  0  0  0  0  0  0  0  0  0  0
    2.9061    1.9586    0.0000 C   0  0  0  0  0  0  0  0  0  0  0  0
    7.3361   -2.9342    0.0000 C   0  0  0  0  0  0  0  0  0  0  0  0
    8.9521   -1.7558    0.0000 C   0  0  0  0  0  0  0  0  0  0  0  0
    2.0000    0.4031    0.0000 C   0  0  0  0  0  0  0  0  0  0  0  0
    2.0000    1.4447    0.0000 C   0  0  0  0  0  0  0  0  0  0  0  0
    8.2503   -3.3393    0.0000 C   0  0  0  0  0  0  0  0  0  0  0  0
    9.0583   -2.7502    0.0000 C   0  0  0  0  0  0  0  0  0  0  0  0
    6.1860    3.5065    0.0000 H   0  0  0  0  0  0  0  0  0  0  0  0
    5.7875    2.8163    0.0000 H   0  0  0  0  0  0  0  0  0  0  0  0
    6.8656    0.9490    0.0000 H   0  0  0  0  0  0  0  0  0  0  0  0
    7.6626    0.9490    0.0000 H   0  0  0  0  0  0  0  0  0  0  0  0
    7.6626    3.8989    0.0000 H   0  0  0  0  0  0  0  0  0  0  0  0
    6.8656    3.8989    0.0000 H   0  0  0  0  0  0  0  0  0  0  0  0
    8.3422    1.3413    0.0000 H   0  0  0  0  0  0  0  0  0  0  0  0
    8.7407    2.0316    0.0000 H   0  0  0  0  0  0  0  0  0  0  0  0
    9.3062    2.8870    0.0000 H   0  0  0  0  0  0  0  0  0  0  0  0
    9.5331    3.7339    0.0000 H   0  0  0  0  0  0  0  0  0  0  0  0
    8.6862    3.9609    0.0000 H   0  0  0  0  0  0  0  0  0  0  0  0
    6.3672    0.0918    0.0000 H   0  0  0  0  0  0  0  0  0  0  0  0
    3.8016   -3.1165    0.0000 H   0  0  0  0  0  0  0  0  0  0  0  0
    2.9132   -0.7307    0.0000 H   0  0  0  0  0  0  0  0  0  0  0  0
    8.0892    0.0963    0.0000 H   0  0  0  0  0  0  0  0  0  0  0  0
    2.9132    2.5786    0.0000 H   0  0  0  0  0  0  0  0  0  0  0  0
    6.8351   -3.2995    0.0000 H   0  0  0  0  0  0  0  0  0  0  0  0
    9.4530   -1.3905    0.0000 H   0  0  0  0  0  0  0  0  0  0  0  0
    1.4643    0.0910    0.0000 H   0  0  0  0  0  0  0  0  0  0  0  0
    1.4643    1.7568    0.0000 H   0  0  0  0  0  0  0  0  0  0  0  0
    8.3162   -3.9558    0.0000 H   0  0  0  0  0  0  0  0  0  0  0  0
    9.6252   -3.0014    0.0000 H   0  0  0  0  0  0  0  0  0  0  0  0
  1 22  2  0  0  0  0
  2 23  2  0  0  0  0
  3  9  1  0  0  0  0
  3 10  1  0  0  0  0
  3 13  1  0  0  0  0
  4 11  1  0  0  0  0
  4 12  1  0  0  0  0
  4 14  1  0  0  0  0
  5 13  1  0  0  0  0
  5 15  2  0  0  0  0
  6 13  2  0  0  0  0
  6 20  1  0  0  0  0
  7 22  1  0  0  0  0
  7 23  1  0  0  0  0
  7 46  1  0  0  0  0
  8 24  1  0  0  0  0
  8 25  1  0  0  0  0
  8 48  1  0  0  0  0
  9 11  1  0  0  0  0
  9 34  1  0  0  0  0
  9 35  1  0  0  0  0
 10 12  1  0  0  0  0
 10 36  1  0  0  0  0
 10 37  1  0  0  0  0
 11 38  1  0  0  0  0
 11 39  1  0  0  0  0
 12 40  1  0  0  0  0
 12 41  1  0  0  0  0
 14 42  1  0  0  0  0
 14 43  1  0  0  0  0
 14 44  1  0  0  0  0
 15 16  1  0  0  0  0
 15 18  1  0  0  0  0
 16 17  2  0  0  0  0
 16 22  1  0  0  0  0
 17 19  1  0  0  0  0
 17 23  1  0  0  0  0
 18 20  1  0  0  0  0
 18 26  2  0  0  0  0
 19 21  1  0  0  0  0
 19 25  2  0  0  0  0
 20 27  2  0  0  0  0
 21 24  1  0  0  0  0
 21 28  2  0  0  0  0
 24 29  2  0  0  0  0
 25 45  1  0  0  0  0
 26 30  1  0  0  0  0
 26 47  1  0  0  0  0
 27 31  1  0  0  0  0
 27 49  1  0  0  0  0
 28 32  1  0  0  0  0
 28 50  1  0  0  0  0
 29 33  1  0  0  0  0
 29 51  1  0  0  0  0
 30 31  2  0  0  0  0
 30 52  1  0  0  0  0
 31 53  1  0  0  0  0
 32 33  2  0  0  0  0
 32 54  1  0  0  0  0
 33 55  1  0  0  0  0
M  END
> <PUBCHEM_COMPOUND_CID>
10296883

> <PUBCHEM_COMPOUND_CANONICALIZED>
1

> <PUBCHEM_CACTVS_COMPLEXITY>
822

> <PUBCHEM_CACTVS_HBOND_ACCEPTOR>
6

> <PUBCHEM_CACTVS_HBOND_DONOR>
2

> <PUBCHEM_CACTVS_ROTATABLE_BOND>
3

> <PUBCHEM_CACTVS_SUBSKEYS>
AAADceB7sAAAAAAAAAAAAAAAAAAAAWIAAAA8eIEAAAAAAFix/gAAHgAQAAAADAjBngQ/0PfJkACoAzV3dACCgCkxAqAJ2aE4ZNiIaPrA3dGUJAholCLIySccicCegAAAAAACAAAAAAAAAAQAAAAAAAAAAA==

> <PUBCHEM_IUPAC_OPENEYE_NAME>
3-(1H-indol-3-yl)-4-[2-(4-methylpiperazin-1-yl)quinazolin-4-yl]pyrrole-2,5-dione

> <PUBCHEM_IUPAC_CAS_NAME>
3-(1H-indol-3-yl)-4-[2-(4-methyl-1-piperazinyl)-4-quinazolinyl]pyrrole-2,5-dione

> <PUBCHEM_IUPAC_NAME_MARKUP>
3-(1<I>H</I>-indol-3-yl)-4-[2-(4-methylpiperazin-1-yl)quinazolin-4-yl]pyrrole-2,5-dione

> <PUBCHEM_IUPAC_NAME>
3-(1H-indol-3-yl)-4-[2-(4-methylpiperazin-1-yl)quinazolin-4-yl]pyrrole-2,5-dione

> <PUBCHEM_IUPAC_SYSTEMATIC_NAME>
3-(1H-indol-3-yl)-4-[2-(4-methylpiperazin-1-yl)quinazolin-4-yl]pyrrole-2,5-dione

> <PUBCHEM_IUPAC_TRADITIONAL_NAME>
3-(1H-indol-3-yl)-4-[2-(4-methylpiperazino)quinazolin-4-yl]-3-pyrroline-2,5-quinone

> <PUBCHEM_IUPAC_INCHI>
InChI=1S/C25H22N6O2/c1-30-10-12-31(13-11-30)25-27-19-9-5-3-7-16(19)22(28-25)21-20(23(32)29-24(21)33)17-14-26-18-8-4-2-6-15(17)18/h2-9,14,26H,10-13H2,1H3,(H,29,32,33)

> <PUBCHEM_IUPAC_INCHIKEY>
OAVGBZOFDPFGPJ-UHFFFAOYSA-N

> <PUBCHEM_XLOGP3_AA>
2.6

> <PUBCHEM_EXACT_MASS>
438.180424

> <PUBCHEM_MOLECULAR_FORMULA>
C25H22N6O2

> <PUBCHEM_MOLECULAR_WEIGHT>
438.5

> <PUBCHEM_OPENEYE_CAN_SMILES>
CN1CCN(CC1)C2=NC3=CC=CC=C3C(=N2)C4=C(C(=O)NC4=O)C5=CNC6=CC=CC=C65

> <PUBCHEM_OPENEYE_ISO_SMILES>
CN1CCN(CC1)C2=NC3=CC=CC=C3C(=N2)C4=C(C(=O)NC4=O)C5=CNC6=CC=CC=C65

> <PUBCHEM_CACTVS_TPSA>
94.2

> <PUBCHEM_MONOISOTOPIC_WEIGHT>
438.180424

> <PUBCHEM_TOTAL_CHARGE>
0

> <PUBCHEM_HEAVY_ATOM_COUNT>
33

> <PUBCHEM_ATOM_DEF_STEREO_COUNT>
0

> <PUBCHEM_ATOM_UDEF_STEREO_COUNT>
0

> <PUBCHEM_BOND_DEF_STEREO_COUNT>
0

> <PUBCHEM_BOND_UDEF_STEREO_COUNT>
0

> <PUBCHEM_ISOTOPIC_ATOM_COUNT>
0

> <PUBCHEM_COMPONENT_COUNT>
1

> <PUBCHEM_CACTVS_TAUTO_COUNT>
-1

> <PUBCHEM_COORDINATE_TYPE>
1
5
255

> <PUBCHEM_BONDANNOTATIONS>
15  18  8
18  20  8
18  26  8
19  21  8
19  25  8
20  27  8
21  24  8
21  28  8
24  29  8
26  30  8
27  31  8
28  32  8
29  33  8
30  31  8
32  33  8
5  13  8
5  15  8
6  13  8
6  20  8
8  24  8
8  25  8

$$$$
