11513676
  -OEChem-05262008352D

199199  0     1  0  0  0  0  0999 V2000
    8.3855   -5.6277    0.0000 O   0  0  0  0  0  0  0  0  0  0  0  0
    9.9992   -4.9728    0.0000 O   0  0  0  0  0  0  0  0  0  0  0  0
   13.1344   -3.3565    0.0000 O   0  0  0  0  0  0  0  0  0  0  0  0
   14.8981   -0.3017    0.0000 O   0  0  0  0  0  0  0  0  0  0  0  0
    6.4879   -4.6375    0.0000 O   0  0  0  0  0  0  0  0  0  0  0  0
    3.3931    4.3042    0.0000 O   0  0  0  0  0  0  0  0  0  0  0  0
    3.7152   -2.4571    0.0000 O   0  0  0  0  0  0  0  0  0  0  0  0
    2.5615    0.8763    0.0000 O   0  0  0  0  0  0  0  0  0  0  0  0
   14.7303    3.2216    0.0000 O   0  0  0  0  0  0  0  0  0  0  0  0
    5.9460    6.7383    0.0000 O   0  0  0  0  0  0  0  0  0  0  0  0
    9.4096    7.4058    0.0000 O   0  0  0  0  0  0  0  0  0  0  0  0
   12.6842    6.0949    0.0000 O   0  0  0  0  0  0  0  0  0  0  0  0
   11.6583   -3.2509    0.0000 N   0  0  0  0  0  0  0  0  0  0  0  0
    8.8145   -4.0859    0.0000 N   0  0  0  0  0  0  0  0  0  0  0  0
   13.5992   -1.0110    0.0000 N   0  0  0  0  0  0  0  0  0  0  0  0
   14.0210    1.9227    0.0000 N   0  0  0  0  0  0  0  0  0  0  0  0
    5.9707   -3.2509    0.0000 N   0  0  0  0  0  0  0  0  0  0  0  0
    3.6080    1.9227    0.0000 N   0  0  0  0  0  0  0  0  0  0  0  0
    4.0298   -1.0110    0.0000 N   0  0  0  0  0  0  0  0  0  0  0  0
    4.8392    4.6187    0.0000 N   0  0  0  0  0  0  0  0  0  0  0  0
    7.3326    6.2211    0.0000 N   0  0  0  0  0  0  0  0  0  0  0  0
   12.7898    4.6187    0.0000 N   0  0  0  0  0  0  0  0  0  0  0  0
   10.2964    6.2211    0.0000 N   0  0  0  0  0  0  0  0  0  0  0  0
   10.7695   -3.7091    0.0000 C   0  0  1  0  0  0  0  0  0  0  0  0
    7.8190   -3.9909    0.0000 C   0  0  1  0  0  0  0  0  0  0  0  0
   13.0992   -1.8770    0.0000 C   0  0  1  0  0  0  0  0  0  0  0  0
    7.6298   -4.9728    0.0000 C   0  0  1  0  0  0  0  0  0  0  0  0
   11.1411   -4.6375    0.0000 C   0  0  0  0  0  0  0  0  0  0  0  0
    6.9749   -5.7285    0.0000 C   0  0  1  0  0  0  0  0  0  0  0  0
   13.9138   -2.4571    0.0000 C   0  0  0  0  0  0  0  0  0  0  0  0
    9.8100   -3.9909    0.0000 C   0  0  0  0  0  0  0  0  0  0  0  0
   12.4443   -2.6328    0.0000 C   0  0  0  0  0  0  0  0  0  0  0  0
   14.0686    0.9238    0.0000 C   0  0  2  0  0  0  0  0  0  0  0  0
   14.9093   -2.5521    0.0000 C   0  0  0  0  0  0  0  0  0  0  0  0
   13.9263   -0.0660    0.0000 C   0  0  0  0  0  0  0  0  0  0  0  0
    6.8595   -3.7091    0.0000 C   0  0  0  0  0  0  0  0  0  0  0  0
   15.0675    0.8763    0.0000 C   0  0  0  0  0  0  0  0  0  0  0  0
    7.3020   -6.6736    0.0000 C   0  0  0  0  0  0  0  0  0  0  0  0
   12.1309   -4.7798    0.0000 C   0  0  0  0  0  0  0  0  0  0  0  0
   10.5230   -5.4236    0.0000 C   0  0  0  0  0  0  0  0  0  0  0  0
   12.1989   -4.0922    0.0000 C   0  0  0  0  0  0  0  0  0  0  0  0
   15.9563    1.3345    0.0000 C   0  0  0  0  0  0  0  0  0  0  0  0
    5.9930   -5.5393    0.0000 C   0  0  0  0  0  0  0  0  0  0  0  0
    8.8145   -5.0859    0.0000 C   0  0  0  0  0  0  0  0  0  0  0  0
    3.8437    2.8945    0.0000 C   0  0  1  0  0  0  0  0  0  0  0  0
    5.1846   -2.6328    0.0000 C   0  0  2  0  0  0  0  0  0  0  0  0
   14.5088   -1.4264    0.0000 C   0  0  0  0  0  0  0  0  0  0  0  0
    2.8987    3.2216    0.0000 C   0  0  0  0  0  0  0  0  0  0  0  0
   15.3247   -3.4618    0.0000 C   0  0  0  0  0  0  0  0  0  0  0  0
   15.4893   -1.7375    0.0000 C   0  0  0  0  0  0  0  0  0  0  0  0
    5.5630    5.3088    0.0000 C   0  0  1  0  0  0  0  0  0  0  0  0
    3.7027   -0.0660    0.0000 C   0  0  1  0  0  0  0  0  0  0  0  0
    4.9448    6.0949    0.0000 C   0  0  0  0  0  0  0  0  0  0  0  0
    8.3145    6.4104    0.0000 C   0  0  1  0  0  0  0  0  0  0  0  0
    4.2592    3.8042    0.0000 C   0  0  0  0  0  0  0  0  0  0  0  0
    4.5298   -1.8770    0.0000 C   0  0  0  0  0  0  0  0  0  0  0  0
    4.4946   -3.3565    0.0000 C   0  0  0  0  0  0  0  0  0  0  0  0
    3.5604    0.9238    0.0000 C   0  0  0  0  0  0  0  0  0  0  0  0
    8.2194    7.4058    0.0000 C   0  0  0  0  0  0  0  0  0  0  0  0
   13.7853    2.8945    0.0000 C   0  0  0  0  0  0  0  0  0  0  0  0
    6.4042    5.8494    0.0000 C   0  0  0  0  0  0  0  0  0  0  0  0
    6.6471   -7.4293    0.0000 C   0  0  0  0  0  0  0  0  0  0  0  0
   16.7975    0.7938    0.0000 C   0  0  0  0  0  0  0  0  0  0  0  0
   16.0039    2.3334    0.0000 C   0  0  0  0  0  0  0  0  0  0  0  0
    2.6182    2.0650    0.0000 C   0  0  0  0  0  0  0  0  0  0  0  0
   15.0108    2.0650    0.0000 C   0  0  0  0  0  0  0  0  0  0  0  0
   13.3698    3.8042    0.0000 C   0  0  1  0  0  0  0  0  0  0  0  0
    8.6348    8.3155    0.0000 C   0  0  0  0  0  0  0  0  0  0  0  0
    2.7095    4.2035    0.0000 C   0  0  0  0  0  0  0  0  0  0  0  0
    2.1430    2.5667    0.0000 C   0  0  0  0  0  0  0  0  0  0  0  0
    9.3145    6.4104    0.0000 C   0  0  0  0  0  0  0  0  0  0  0  0
    2.7309   -0.3017    0.0000 C   0  0  0  0  0  0  0  0  0  0  0  0
    3.9550    5.9525    0.0000 C   0  0  0  0  0  0  0  0  0  0  0  0
    5.3164    7.0232    0.0000 C   0  0  0  0  0  0  0  0  0  0  0  0
    3.1202   -1.4264    0.0000 C   0  0  0  0  0  0  0  0  0  0  0  0
    4.7763   -4.3160    0.0000 C   0  0  0  0  0  0  0  0  0  0  0  0
    7.0508    7.1806    0.0000 C   0  0  0  0  0  0  0  0  0  0  0  0
   11.2248    5.8494    0.0000 C   0  0  2  0  0  0  0  0  0  0  0  0
    2.0000    1.2790    0.0000 C   0  0  0  0  0  0  0  0  0  0  0  0
    6.9742   -8.3743    0.0000 C   0  0  0  0  0  0  0  0  0  0  0  0
   14.2359    4.3042    0.0000 C   0  0  0  0  0  0  0  0  0  0  0  0
    8.0548    9.1300    0.0000 C   0  0  0  0  0  0  0  0  0  0  0  0
    9.6303    8.4105    0.0000 C   0  0  0  0  0  0  0  0  0  0  0  0
   12.0660    5.3088    0.0000 C   0  0  0  0  0  0  0  0  0  0  0  0
   11.6830    6.7383    0.0000 C   0  0  0  0  0  0  0  0  0  0  0  0
    6.3193   -9.1300    0.0000 C   0  0  0  0  0  0  0  0  0  0  0  0
   11.3504   -3.9258    0.0000 H   0  0  0  0  0  0  0  0  0  0  0  0
    8.3284   -4.6713    0.0000 H   0  0  0  0  0  0  0  0  0  0  0  0
   13.7050   -1.7452    0.0000 H   0  0  0  0  0  0  0  0  0  0  0  0
    8.2157   -4.7700    0.0000 H   0  0  0  0  0  0  0  0  0  0  0  0
   11.3716   -5.2131    0.0000 H   0  0  0  0  0  0  0  0  0  0  0  0
    6.7721   -5.1426    0.0000 H   0  0  0  0  0  0  0  0  0  0  0  0
   13.4031   -2.8086    0.0000 H   0  0  0  0  0  0  0  0  0  0  0  0
   14.1305   -1.8762    0.0000 H   0  0  0  0  0  0  0  0  0  0  0  0
   14.5070    1.3622    0.0000 H   0  0  0  0  0  0  0  0  0  0  0  0
   15.5265   -2.6110    0.0000 H   0  0  0  0  0  0  0  0  0  0  0  0
   14.8279    0.3044    0.0000 H   0  0  0  0  0  0  0  0  0  0  0  0
   14.9357    1.4821    0.0000 H   0  0  0  0  0  0  0  0  0  0  0  0
    7.6929   -7.1548    0.0000 H   0  0  0  0  0  0  0  0  0  0  0  0
    7.8438   -6.3721    0.0000 H   0  0  0  0  0  0  0  0  0  0  0  0
   12.0427   -5.3935    0.0000 H   0  0  0  0  0  0  0  0  0  0  0  0
   12.7446   -4.8680    0.0000 H   0  0  0  0  0  0  0  0  0  0  0  0
   12.2192   -4.1661    0.0000 H   0  0  0  0  0  0  0  0  0  0  0  0
   10.0356   -5.0403    0.0000 H   0  0  0  0  0  0  0  0  0  0  0  0
   10.1397   -5.9109    0.0000 H   0  0  0  0  0  0  0  0  0  0  0  0
   11.0103   -5.8068    0.0000 H   0  0  0  0  0  0  0  0  0  0  0  0
   11.6774   -4.4274    0.0000 H   0  0  0  0  0  0  0  0  0  0  0  0
   12.5341   -4.6137    0.0000 H   0  0  0  0  0  0  0  0  0  0  0  0
   12.7205   -3.7570    0.0000 H   0  0  0  0  0  0  0  0  0  0  0  0
   15.4347    1.6697    0.0000 H   0  0  0  0  0  0  0  0  0  0  0  0
    6.1103   -4.9305    0.0000 H   0  0  0  0  0  0  0  0  0  0  0  0
    5.3842   -5.4220    0.0000 H   0  0  0  0  0  0  0  0  0  0  0  0
    5.8757   -6.1481    0.0000 H   0  0  0  0  0  0  0  0  0  0  0  0
    3.2996    2.5974    0.0000 H   0  0  0  0  0  0  0  0  0  0  0  0
    8.1945   -5.0859    0.0000 H   0  0  0  0  0  0  0  0  0  0  0  0
    8.8145   -5.7059    0.0000 H   0  0  0  0  0  0  0  0  0  0  0  0
    9.4345   -5.0859    0.0000 H   0  0  0  0  0  0  0  0  0  0  0  0
    5.2289   -3.2512    0.0000 H   0  0  0  0  0  0  0  0  0  0  0  0
    5.6355   -3.7725    0.0000 H   0  0  0  0  0  0  0  0  0  0  0  0
   14.2513   -1.9904    0.0000 H   0  0  0  0  0  0  0  0  0  0  0  0
   15.0728   -1.6840    0.0000 H   0  0  0  0  0  0  0  0  0  0  0  0
   14.7664   -0.8624    0.0000 H   0  0  0  0  0  0  0  0  0  0  0  0
    3.0161    2.6128    0.0000 H   0  0  0  0  0  0  0  0  0  0  0  0
    4.9445    5.3530    0.0000 H   0  0  0  0  0  0  0  0  0  0  0  0
   14.7607   -3.7193    0.0000 H   0  0  0  0  0  0  0  0  0  0  0  0
   15.5822   -4.0257    0.0000 H   0  0  0  0  0  0  0  0  0  0  0  0
   15.8886   -3.2042    0.0000 H   0  0  0  0  0  0  0  0  0  0  0  0
   15.9944   -2.0972    0.0000 H   0  0  0  0  0  0  0  0  0  0  0  0
   15.8489   -1.2325    0.0000 H   0  0  0  0  0  0  0  0  0  0  0  0
   14.9843   -1.3779    0.0000 H   0  0  0  0  0  0  0  0  0  0  0  0
    8.2682   -6.2364    0.0000 H   0  0  0  0  0  0  0  0  0  0  0  0
    3.4056   -0.6101    0.0000 H   0  0  0  0  0  0  0  0  0  0  0  0
    5.5585    6.1831    0.0000 H   0  0  0  0  0  0  0  0  0  0  0  0
    7.8182    6.7819    0.0000 H   0  0  0  0  0  0  0  0  0  0  0  0
    4.1270   -2.8572    0.0000 H   0  0  0  0  0  0  0  0  0  0  0  0
    3.9390   -3.6318    0.0000 H   0  0  0  0  0  0  0  0  0  0  0  0
    4.3707    5.0248    0.0000 H   0  0  0  0  0  0  0  0  0  0  0  0
    7.7776    7.8408    0.0000 H   0  0  0  0  0  0  0  0  0  0  0  0
    8.8309    7.3030    0.0000 H   0  0  0  0  0  0  0  0  0  0  0  0
    6.0383   -7.3119    0.0000 H   0  0  0  0  0  0  0  0  0  0  0  0
   16.4624    0.2723    0.0000 H   0  0  0  0  0  0  0  0  0  0  0  0
   17.3191    0.4587    0.0000 H   0  0  0  0  0  0  0  0  0  0  0  0
   17.1327    1.3154    0.0000 H   0  0  0  0  0  0  0  0  0  0  0  0
   16.6232    2.3039    0.0000 H   0  0  0  0  0  0  0  0  0  0  0  0
   16.0334    2.9527    0.0000 H   0  0  0  0  0  0  0  0  0  0  0  0
   15.3846    2.3629    0.0000 H   0  0  0  0  0  0  0  0  0  0  0  0
    2.8116    2.6541    0.0000 H   0  0  0  0  0  0  0  0  0  0  0  0
    2.0717    2.3578    0.0000 H   0  0  0  0  0  0  0  0  0  0  0  0
   15.0991    1.4513    0.0000 H   0  0  0  0  0  0  0  0  0  0  0  0
   15.6245    2.1533    0.0000 H   0  0  0  0  0  0  0  0  0  0  0  0
   14.9226    2.6787    0.0000 H   0  0  0  0  0  0  0  0  0  0  0  0
   13.5016    4.4100    0.0000 H   0  0  0  0  0  0  0  0  0  0  0  0
    8.8924    8.8794    0.0000 H   0  0  0  0  0  0  0  0  0  0  0  0
    3.3183    4.3209    0.0000 H   0  0  0  0  0  0  0  0  0  0  0  0
    2.5922    4.8123    0.0000 H   0  0  0  0  0  0  0  0  0  0  0  0
    2.1007    4.0862    0.0000 H   0  0  0  0  0  0  0  0  0  0  0  0
    1.7370    3.0353    0.0000 H   0  0  0  0  0  0  0  0  0  0  0  0
    1.6744    2.1607    0.0000 H   0  0  0  0  0  0  0  0  0  0  0  0
    2.5490    2.0982    0.0000 H   0  0  0  0  0  0  0  0  0  0  0  0
    2.5847    0.3008    0.0000 H   0  0  0  0  0  0  0  0  0  0  0  0
    2.1284   -0.4479    0.0000 H   0  0  0  0  0  0  0  0  0  0  0  0
    2.8771   -0.9043    0.0000 H   0  0  0  0  0  0  0  0  0  0  0  0
    3.8667    6.5662    0.0000 H   0  0  0  0  0  0  0  0  0  0  0  0
    3.3413    5.8643    0.0000 H   0  0  0  0  0  0  0  0  0  0  0  0
    4.0432    5.3389    0.0000 H   0  0  0  0  0  0  0  0  0  0  0  0
    5.8920    6.7928    0.0000 H   0  0  0  0  0  0  0  0  0  0  0  0
    5.5469    7.5988    0.0000 H   0  0  0  0  0  0  0  0  0  0  0  0
    4.7409    7.2537    0.0000 H   0  0  0  0  0  0  0  0  0  0  0  0
    2.8626   -0.8624    0.0000 H   0  0  0  0  0  0  0  0  0  0  0  0
    2.5562   -1.6840    0.0000 H   0  0  0  0  0  0  0  0  0  0  0  0
    3.3777   -1.9904    0.0000 H   0  0  0  0  0  0  0  0  0  0  0  0
    4.1814   -4.4906    0.0000 H   0  0  0  0  0  0  0  0  0  0  0  0
    4.9510   -4.9109    0.0000 H   0  0  0  0  0  0  0  0  0  0  0  0
    5.3712   -4.1413    0.0000 H   0  0  0  0  0  0  0  0  0  0  0  0
    7.6457    7.3553    0.0000 H   0  0  0  0  0  0  0  0  0  0  0  0
    6.8762    7.7755    0.0000 H   0  0  0  0  0  0  0  0  0  0  0  0
    6.4559    7.0059    0.0000 H   0  0  0  0  0  0  0  0  0  0  0  0
   11.0081    6.4304    0.0000 H   0  0  0  0  0  0  0  0  0  0  0  0
   13.2583    5.0248    0.0000 H   0  0  0  0  0  0  0  0  0  0  0  0
    1.5126    1.6622    0.0000 H   0  0  0  0  0  0  0  0  0  0  0  0
    1.6167    0.7916    0.0000 H   0  0  0  0  0  0  0  0  0  0  0  0
    2.4874    0.8957    0.0000 H   0  0  0  0  0  0  0  0  0  0  0  0
   10.4711    6.8160    0.0000 H   0  0  0  0  0  0  0  0  0  0  0  0
    7.5830   -8.4916    0.0000 H   0  0  0  0  0  0  0  0  0  0  0  0
    8.5598    9.4897    0.0000 H   0  0  0  0  0  0  0  0  0  0  0  0
    7.6952    9.6351    0.0000 H   0  0  0  0  0  0  0  0  0  0  0  0
    7.5498    8.7704    0.0000 H   0  0  0  0  0  0  0  0  0  0  0  0
    9.6893    7.7933    0.0000 H   0  0  0  0  0  0  0  0  0  0  0  0
   10.2475    8.4695    0.0000 H   0  0  0  0  0  0  0  0  0  0  0  0
    9.5714    9.0277    0.0000 H   0  0  0  0  0  0  0  0  0  0  0  0
   14.5459    3.7672    0.0000 H   0  0  0  0  0  0  0  0  0  0  0  0
   14.7728    4.6142    0.0000 H   0  0  0  0  0  0  0  0  0  0  0  0
   13.9259    4.8411    0.0000 H   0  0  0  0  0  0  0  0  0  0  0  0
   12.2341    6.4542    0.0000 H   0  0  0  0  0  0  0  0  0  0  0  0
   11.9671    7.2894    0.0000 H   0  0  0  0  0  0  0  0  0  0  0  0
   11.1319    7.0224    0.0000 H   0  0  0  0  0  0  0  0  0  0  0  0
    5.8508   -8.7240    0.0000 H   0  0  0  0  0  0  0  0  0  0  0  0
    5.9133   -9.5986    0.0000 H   0  0  0  0  0  0  0  0  0  0  0  0
    6.7879   -9.5361    0.0000 H   0  0  0  0  0  0  0  0  0  0  0  0
 27  1  1  6  0  0  0
  1131  1  0  0  0  0
  2 31  2  0  0  0  0
  3 32  2  0  0  0  0
  4 35  2  0  0  0  0
  5 36  2  0  0  0  0
  6 55  2  0  0  0  0
  7 56  2  0  0  0  0
  8 58  2  0  0  0  0
  9 60  2  0  0  0  0
 10 61  2  0  0  0  0
 11 71  2  0  0  0  0
 12 84  2  0  0  0  0
 13 24  1  0  0  0  0
 13 32  1  0  0  0  0
 13 41  1  0  0  0  0
 14 25  1  0  0  0  0
 14 31  1  0  0  0  0
 14 44  1  0  0  0  0
 15 26  1  0  0  0  0
 15 35  1  0  0  0  0
 15 47  1  0  0  0  0
 16 33  1  0  0  0  0
 16 60  1  0  0  0  0
 16 66  1  0  0  0  0
 17 36  1  0  0  0  0
 17 46  1  0  0  0  0
 17119  1  0  0  0  0
 18 45  1  0  0  0  0
 18 58  1  0  0  0  0
 18 65  1  0  0  0  0
 19 52  1  0  0  0  0
 19 56  1  0  0  0  0
 19 75  1  0  0  0  0
 20 51  1  0  0  0  0
 20 55  1  0  0  0  0
 20137  1  0  0  0  0
 21 54  1  0  0  0  0
 21 61  1  0  0  0  0
 21 77  1  0  0  0  0
 22 67  1  0  0  0  0
 22 84  1  0  0  0  0
 22179  1  0  0  0  0
 23 71  1  0  0  0  0
 23 78  1  0  0  0  0
 23183  1  0  0  0  0
 24 28  1  1  0  0  0
 24 31  1  0  0  0  0
 24 87  1  0  0  0  0
 25 27  1  0  0  0  0
 25 36  1  0  0  0  0
 25 88  1  6  0  0  0
 26 30  1  1  0  0  0
 26 32  1  0  0  0  0
 26 89  1  0  0  0  0
 27 29  1  0  0  0  0
 27 90  1  0  0  0  0
 28 39  1  0  0  0  0
 28 40  1  0  0  0  0
 28 91  1  0  0  0  0
 29 38  1  0  0  0  0
 29 43  1  1  0  0  0
 29 92  1  0  0  0  0
 30 34  1  0  0  0  0
 30 93  1  0  0  0  0
 30 94  1  0  0  0  0
 33 35  1  0  0  0  0
 33 37  1  1  0  0  0
 33 95  1  0  0  0  0
 34 49  1  0  0  0  0
 34 50  1  0  0  0  0
 34 96  1  0  0  0  0
 37 42  1  0  0  0  0
 37 97  1  0  0  0  0
 37 98  1  0  0  0  0
 38 62  1  0  0  0  0
 38 99  1  0  0  0  0
 38100  1  0  0  0  0
 39101  1  0  0  0  0
 39102  1  0  0  0  0
 39103  1  0  0  0  0
 40104  1  0  0  0  0
 40105  1  0  0  0  0
 40106  1  0  0  0  0
 41107  1  0  0  0  0
 41108  1  0  0  0  0
 41109  1  0  0  0  0
 42 63  1  0  0  0  0
 42 64  1  0  0  0  0
 42110  1  0  0  0  0
 43111  1  0  0  0  0
 43112  1  0  0  0  0
 43113  1  0  0  0  0
 44115  1  0  0  0  0
 44116  1  0  0  0  0
 44117  1  0  0  0  0
 45 48  1  1  0  0  0
 45 55  1  0  0  0  0
 45114  1  0  0  0  0
 46 56  1  0  0  0  0
 46 57  1  1  0  0  0
 46118  1  0  0  0  0
 47120  1  0  0  0  0
 47121  1  0  0  0  0
 47122  1  0  0  0  0
 48 69  1  0  0  0  0
 48 70  1  0  0  0  0
 48123  1  0  0  0  0
 49125  1  0  0  0  0
 49126  1  0  0  0  0
 49127  1  0  0  0  0
 50128  1  0  0  0  0
 50129  1  0  0  0  0
 50130  1  0  0  0  0
 51 53  1  1  0  0  0
 51 61  1  0  0  0  0
 51124  1  0  0  0  0
 52 58  1  0  0  0  0
 52 72  1  6  0  0  0
 52132  1  0  0  0  0
 53 73  1  0  0  0  0
 53 74  1  0  0  0  0
 53133  1  0  0  0  0
 54 59  1  1  0  0  0
 54 71  1  0  0  0  0
 54134  1  0  0  0  0
 57 76  1  0  0  0  0
 57135  1  0  0  0  0
 57136  1  0  0  0  0
 59 68  1  0  0  0  0
 59138  1  0  0  0  0
 59139  1  0  0  0  0
 60 67  1  0  0  0  0
 62 80  2  0  0  0  0
 62140  1  0  0  0  0
 63141  1  0  0  0  0
 63142  1  0  0  0  0
 63143  1  0  0  0  0
 64144  1  0  0  0  0
 64145  1  0  0  0  0
 64146  1  0  0  0  0
 65 79  1  0  0  0  0
 65147  1  0  0  0  0
 65148  1  0  0  0  0
 66149  1  0  0  0  0
 66150  1  0  0  0  0
 66151  1  0  0  0  0
 67 81  1  6  0  0  0
 67152  1  0  0  0  0
 68 82  1  0  0  0  0
 68 83  1  0  0  0  0
 68153  1  0  0  0  0
 69154  1  0  0  0  0
 69155  1  0  0  0  0
 69156  1  0  0  0  0
 70157  1  0  0  0  0
 70158  1  0  0  0  0
 70159  1  0  0  0  0
 72160  1  0  0  0  0
 72161  1  0  0  0  0
 72162  1  0  0  0  0
 73163  1  0  0  0  0
 73164  1  0  0  0  0
 73165  1  0  0  0  0
 74166  1  0  0  0  0
 74167  1  0  0  0  0
 74168  1  0  0  0  0
 75169  1  0  0  0  0
 75170  1  0  0  0  0
 75171  1  0  0  0  0
 76172  1  0  0  0  0
 76173  1  0  0  0  0
 76174  1  0  0  0  0
 77175  1  0  0  0  0
 77176  1  0  0  0  0
 77177  1  0  0  0  0
 78 84  1  0  0  0  0
 78 85  1  1  0  0  0
 78178  1  0  0  0  0
 79180  1  0  0  0  0
 79181  1  0  0  0  0
 79182  1  0  0  0  0
 80 86  1  0  0  0  0
 80184  1  0  0  0  0
 81191  1  0  0  0  0
 81192  1  0  0  0  0
 81193  1  0  0  0  0
 82185  1  0  0  0  0
 82186  1  0  0  0  0
 82187  1  0  0  0  0
 83188  1  0  0  0  0
 83189  1  0  0  0  0
 83190  1  0  0  0  0
 85194  1  0  0  0  0
 85195  1  0  0  0  0
 85196  1  0  0  0  0
 86197  1  0  0  0  0
 86198  1  0  0  0  0
 86199  1  0  0  0  0
M  END
> <PUBCHEM_COMPOUND_CID>
11513676

> <PUBCHEM_COMPOUND_CANONICALIZED>
1

> <PUBCHEM_CACTVS_COMPLEXITY>
2360

> <PUBCHEM_CACTVS_HBOND_ACCEPTOR>
12

> <PUBCHEM_CACTVS_HBOND_DONOR>
5

> <PUBCHEM_CACTVS_ROTATABLE_BOND>
15

> <PUBCHEM_CACTVS_SUBSKEYS>
AAADcfB//AAAAAAAAAAAAAAAAAAAAAAAAAAAAAAAAAAAAAAAAAAAHgAQCAAADTzhgAYCAAPAAgCIACFSEAAAAAAgAAAICIGIAAgCUBYAgSAUQAAGtgCYAAMYCAAOAAAAAAAAAAAAAAAAAAAAAAAAAAAAAA==

> <PUBCHEM_IUPAC_OPENEYE_NAME>
(3S,6S,9S,12R,15S,18S,21S,24S,27R,30S,33S)-25,30-diethyl-33-[(E,1R,2R)-1-hydroxy-2-methyl-hex-4-enyl]-6,9,18-triisobutyl-3,21,24-triisopropyl-1,4,7,10,12,15,19,27,28-nonamethyl-1,4,7,10,13,16,19,22,25,28,31-undecazacyclotritriacontane-2,5,8,11,14,17,20,23,26,29,32-undecone

> <PUBCHEM_IUPAC_CAS_NAME>
(3S,6S,9S,12R,15S,18S,21S,24S,27R,30S,33S)-25,30-diethyl-33-[(E,1R,2R)-1-hydroxy-2-methylhex-4-enyl]-1,4,7,10,12,15,19,27,28-nonamethyl-6,9,18-tris(2-methylpropyl)-3,21,24-tri(propan-2-yl)-1,4,7,10,13,16,19,22,25,28,31-undecazacyclotritriacontane-2,5,8,11,14,17,20,23,26,29,32-undecone

> <PUBCHEM_IUPAC_NAME_MARKUP>
(3<I>S</I>,6<I>S</I>,9<I>S</I>,12<I>R</I>,15<I>S</I>,18<I>S</I>,21<I>S</I>,24<I>S</I>,27<I>R</I>,30<I>S</I>,33<I>S</I>)-25,30-diethyl-33-[(<I>E</I>,1<I>R</I>,2<I>R</I>)-1-hydroxy-2-methylhex-4-enyl]-1,4,7,10,12,15,19,27,28-nonamethyl-6,9,18-tris(2-methylpropyl)-3,21,24-tri(propan-2-yl)-1,4,7,10,13,16,19,22,25,28,31-undecazacyclotritriacontane-2,5,8,11,14,17,20,23,26,29,32-undecone

> <PUBCHEM_IUPAC_NAME>
(3S,6S,9S,12R,15S,18S,21S,24S,27R,30S,33S)-25,30-diethyl-33-[(E,1R,2R)-1-hydroxy-2-methylhex-4-enyl]-1,4,7,10,12,15,19,27,28-nonamethyl-6,9,18-tris(2-methylpropyl)-3,21,24-tri(propan-2-yl)-1,4,7,10,13,16,19,22,25,28,31-undecazacyclotritriacontane-2,5,8,11,14,17,20,23,26,29,32-undecone

> <PUBCHEM_IUPAC_SYSTEMATIC_NAME>
(3S,6S,9S,12R,15S,18S,21S,24S,27R,30S,33S)-25,30-diethyl-1,4,7,10,12,15,19,27,28-nonamethyl-33-[(E,1R,2R)-2-methyl-1-oxidanyl-hex-4-enyl]-6,9,18-tris(2-methylpropyl)-3,21,24-tri(propan-2-yl)-1,4,7,10,13,16,19,22,25,28,31-undecazacyclotritriacontane-2,5,8,11,14,17,20,23,26,29,32-undecone

> <PUBCHEM_IUPAC_TRADITIONAL_NAME>
(3S,6S,9S,12R,15S,18S,21S,24S,27R,30S,33S)-25,30-diethyl-33-[(E,1R,2R)-1-hydroxy-2-methyl-hex-4-enyl]-6,9,18-triisobutyl-3,21,24-triisopropyl-1,4,7,10,12,15,19,27,28-nonamethyl-1,4,7,10,13,16,19,22,25,28,31-undecazacyclotritriacontane-2,5,8,11,14,17,20,23,26,29,32-undecone

> <PUBCHEM_IUPAC_INCHI>
InChI=1S/C63H113N11O12/c1-26-29-30-40(16)52(75)51-56(79)66-44(27-2)59(82)68(20)43(19)58(81)74(28-3)49(38(12)13)55(78)67-48(37(10)11)62(85)69(21)45(31-34(4)5)54(77)64-41(17)53(76)65-42(18)57(80)70(22)46(32-35(6)7)60(83)71(23)47(33-36(8)9)61(84)72(24)50(39(14)15)63(86)73(51)25/h26,29,34-52,75H,27-28,30-33H2,1-25H3,(H,64,77)(H,65,76)(H,66,79)(H,67,78)/b29-26+/t40-,41+,42-,43-,44+,45+,46+,47+,48+,49+,50+,51+,52-/m1/s1

> <PUBCHEM_IUPAC_INCHIKEY>
OLROWHGDTNFZBH-XEMWPYQTSA-N

> <PUBCHEM_XLOGP3_AA>
7.9

> <PUBCHEM_EXACT_MASS>
1215.857018

> <PUBCHEM_MOLECULAR_FORMULA>
C63H113N11O12

> <PUBCHEM_MOLECULAR_WEIGHT>
1216.6

> <PUBCHEM_OPENEYE_CAN_SMILES>
CCC1C(=O)N(C(C(=O)N(C(C(=O)NC(C(=O)N(C(C(=O)NC(C(=O)NC(C(=O)N(C(C(=O)N(C(C(=O)N(C(C(=O)N(C(C(=O)N1)C(C(C)CC=CC)O)C)C(C)C)C)CC(C)C)C)CC(C)C)C)C)C)CC(C)C)C)C(C)C)C(C)C)CC)C)C

> <PUBCHEM_OPENEYE_ISO_SMILES>
CC[C@H]1C(=O)N([C@@H](C(=O)N([C@H](C(=O)N[C@H](C(=O)N([C@H](C(=O)N[C@H](C(=O)N[C@@H](C(=O)N([C@H](C(=O)N([C@H](C(=O)N([C@H](C(=O)N([C@H](C(=O)N1)[C@@H]([C@H](C)C/C=C/C)O)C)C(C)C)C)CC(C)C)C)CC(C)C)C)C)C)CC(C)C)C)C(C)C)C(C)C)CC)C)C

> <PUBCHEM_CACTVS_TPSA>
279

> <PUBCHEM_MONOISOTOPIC_WEIGHT>
1215.857018

> <PUBCHEM_TOTAL_CHARGE>
0

> <PUBCHEM_HEAVY_ATOM_COUNT>
86

> <PUBCHEM_ATOM_DEF_STEREO_COUNT>
13

> <PUBCHEM_ATOM_UDEF_STEREO_COUNT>
0

> <PUBCHEM_BOND_DEF_STEREO_COUNT>
1

> <PUBCHEM_BOND_UDEF_STEREO_COUNT>
0

> <PUBCHEM_ISOTOPIC_ATOM_COUNT>
0

> <PUBCHEM_COMPONENT_COUNT>
1

> <PUBCHEM_CACTVS_TAUTO_COUNT>
-1

> <PUBCHEM_COORDINATE_TYPE>
1
5
255

> <PUBCHEM_BONDANNOTATIONS>
27  1  6
24  28  5
25  88  6
26  30  5
29  43  5
33  37  5
45  48  5
46  57  5
51  53  5
52  72  6
54  59  5
67  81  6
78  85  5

$$$$
