122143
  -OEChem-05262008352D

189196  0     1  0  0  0  0  0999 V2000
    7.7335   -4.1097    0.0000 O   0  0  0  0  0  0  0  0  0  0  0  0
   11.6243   -3.1917    0.0000 O   0  0  0  0  0  0  0  0  0  0  0  0
    4.6016   -1.6304    0.0000 O   0  0  0  0  0  0  0  0  0  0  0  0
   13.3492    0.4019    0.0000 O   0  0  0  0  0  0  0  0  0  0  0  0
    4.6016    2.3858    0.0000 O   0  0  0  0  0  0  0  0  0  0  0  0
   11.5573    3.9248    0.0000 O   0  0  0  0  0  0  0  0  0  0  0  0
    7.7112    4.8650    0.0000 O   0  0  0  0  0  0  0  0  0  0  0  0
    9.3706   -4.5980    0.0000 O   0  0  0  0  0  0  0  0  0  0  0  0
    5.2288   -3.2244    0.0000 O   0  0  0  0  0  0  0  0  0  0  0  0
   13.0435   -2.2369    0.0000 O   0  0  0  0  0  0  0  0  0  0  0  0
    5.4711    0.8797    0.0000 O   0  0  0  0  0  0  0  0  0  0  0  0
   13.4568    2.0430    0.0000 O   0  0  0  0  0  0  0  0  0  0  0  0
    7.0758    3.2462    0.0000 O   0  0  0  0  0  0  0  0  0  0  0  0
    9.8955    3.4122    0.0000 O   0  0  0  0  0  0  0  0  0  0  0  0
    8.3034   -2.1695    0.0000 O   0  0  0  0  0  0  0  0  0  0  0  0
    6.7914   -0.9866    0.0000 O   0  0  0  0  0  0  0  0  0  0  0  0
   10.4794   -1.5571    0.0000 O   0  0  0  0  0  0  0  0  0  0  0  0
    2.8660    1.3797    0.0000 O   0  0  0  0  0  0  0  0  0  0  0  0
   11.3266    0.4622    0.0000 O   0  0  0  0  0  0  0  0  0  0  0  0
    5.8425    5.5946    0.0000 O   0  0  0  0  0  0  0  0  0  0  0  0
   10.9627    5.8407    0.0000 O   0  0  0  0  0  0  0  0  0  0  0  0
    8.0290   -2.1255    0.0000 O   0  0  0  0  0  0  0  0  0  0  0  0
   10.2572   -1.7235    0.0000 O   0  0  0  0  0  0  0  0  0  0  0  0
    2.8660   -0.6243    0.0000 O   0  0  0  0  0  0  0  0  0  0  0  0
   11.3490    0.2485    0.0000 O   0  0  0  0  0  0  0  0  0  0  0  0
    4.2756    4.3451    0.0000 O   0  0  0  0  0  0  0  0  0  0  0  0
   10.4571    2.2678    0.0000 O   0  0  0  0  0  0  0  0  0  0  0  0
    9.0089    6.2866    0.0000 O   0  0  0  0  0  0  0  0  0  0  0  0
    4.9339   -5.2046    0.0000 O   0  0  0  0  0  0  0  0  0  0  0  0
   10.7349   -6.0632    0.0000 O   0  0  0  0  0  0  0  0  0  0  0  0
    6.9799    0.1417    0.0000 O   0  0  0  0  0  0  0  0  0  0  0  0
   15.0397   -2.0838    0.0000 O   0  0  0  0  0  0  0  0  0  0  0  0
    7.4287    1.7804    0.0000 O   0  0  0  0  0  0  0  0  0  0  0  0
   14.5817    3.6992    0.0000 O   0  0  0  0  0  0  0  0  0  0  0  0
    8.5312    1.9470    0.0000 O   0  0  0  0  0  0  0  0  0  0  0  0
    6.9485   -3.4836    0.0000 C   0  0  3  0  0  0  0  0  0  0  0  0
   10.6454   -3.4151    0.0000 C   0  0  3  0  0  0  0  0  0  0  0  0
    4.6016   -0.6264    0.0000 C   0  0  3  0  0  0  0  0  0  0  0  0
   12.9135   -0.5027    0.0000 C   0  0  3  0  0  0  0  0  0  0  0  0
    5.3562    2.9870    0.0000 C   0  0  3  0  0  0  0  0  0  0  0  0
   12.0199    3.0227    0.0000 C   0  0  3  0  0  0  0  0  0  0  0  0
    8.6207    4.5950    0.0000 C   0  0  3  0  0  0  0  0  0  0  0  0
    7.0981   -2.4908    0.0000 C   0  0  3  0  0  0  0  0  0  0  0  0
    9.9625   -2.6791    0.0000 C   0  0  3  0  0  0  0  0  0  0  0  0
    3.7320   -0.1243    0.0000 C   0  0  3  0  0  0  0  0  0  0  0  0
   11.9123   -0.5777    0.0000 C   0  0  3  0  0  0  0  0  0  0  0  0
    5.2065    3.9798    0.0000 C   0  0  3  0  0  0  0  0  0  0  0  0
   11.4543    2.1931    0.0000 C   0  0  3  0  0  0  0  0  0  0  0  0
    9.3036    5.3311    0.0000 C   0  0  3  0  0  0  0  0  0  0  0  0
    8.9836   -2.9025    0.0000 C   0  0  3  0  0  0  0  0  0  0  0  0
    6.3131   -1.8648    0.0000 C   0  0  3  0  0  0  0  0  0  0  0  0
   11.4766   -1.4824    0.0000 C   0  0  3  0  0  0  0  0  0  0  0  0
    3.7320    0.8797    0.0000 C   0  0  3  0  0  0  0  0  0  0  0  0
   11.8900    1.2885    0.0000 C   0  0  3  0  0  0  0  0  0  0  0  0
    5.9915    4.6058    0.0000 C   0  0  3  0  0  0  0  0  0  0  0  0
   10.2825    5.1076    0.0000 C   0  0  3  0  0  0  0  0  0  0  0  0
    8.6876   -3.8620    0.0000 C   0  0  3  0  0  0  0  0  0  0  0  0
    5.3785   -2.2316    0.0000 C   0  0  3  0  0  0  0  0  0  0  0  0
   12.0422   -2.3119    0.0000 C   0  0  3  0  0  0  0  0  0  0  0  0
    4.6016    1.3817    0.0000 C   0  0  3  0  0  0  0  0  0  0  0  0
   12.8912    1.2134    0.0000 C   0  0  3  0  0  0  0  0  0  0  0  0
    6.9262    4.2390    0.0000 C   0  0  3  0  0  0  0  0  0  0  0  0
   10.5785    4.1482    0.0000 C   0  0  3  0  0  0  0  0  0  0  0  0
    6.0138   -3.8505    0.0000 C   0  0  3  0  0  0  0  0  0  0  0  0
   10.3494   -4.3746    0.0000 C   0  0  3  0  0  0  0  0  0  0  0  0
    5.4711   -0.1243    0.0000 C   0  0  3  0  0  0  0  0  0  0  0  0
   13.4791   -1.3323    0.0000 C   0  0  3  0  0  0  0  0  0  0  0  0
    6.2908    2.6201    0.0000 C   0  0  3  0  0  0  0  0  0  0  0  0
   13.0212    2.9476    0.0000 C   0  0  3  0  0  0  0  0  0  0  0  0
    8.9166    3.6356    0.0000 C   0  0  3  0  0  0  0  0  0  0  0  0
    5.8648   -4.8393    0.0000 C   0  0  0  0  0  0  0  0  0  0  0  0
   11.0296   -5.1076    0.0000 C   0  0  0  0  0  0  0  0  0  0  0  0
    6.3372   -0.6243    0.0000 C   0  0  0  0  0  0  0  0  0  0  0  0
   14.4763   -1.2576    0.0000 C   0  0  0  0  0  0  0  0  0  0  0  0
    6.4398    1.6313    0.0000 C   0  0  0  0  0  0  0  0  0  0  0  0
   13.5845    3.7739    0.0000 C   0  0  0  0  0  0  0  0  0  0  0  0
    8.2365    2.9025    0.0000 C   0  0  0  0  0  0  0  0  0  0  0  0
    8.5982   -1.2139    0.0000 C   0  0  0  0  0  0  0  0  0  0  0  0
    7.7910   -0.9616    0.0000 C   0  0  0  0  0  0  0  0  0  0  0  0
    9.9161   -0.7308    0.0000 C   0  0  0  0  0  0  0  0  0  0  0  0
    2.0000    0.8797    0.0000 C   0  0  0  0  0  0  0  0  0  0  0  0
   10.3294    0.5369    0.0000 C   0  0  0  0  0  0  0  0  0  0  0  0
    4.9116    5.9600    0.0000 C   0  0  0  0  0  0  0  0  0  0  0  0
   10.6679    6.7963    0.0000 C   0  0  0  0  0  0  0  0  0  0  0  0
    4.7849   -6.1935    0.0000 C   0  0  0  0  0  0  0  0  0  0  0  0
   11.4150   -6.7963    0.0000 C   0  0  0  0  0  0  0  0  0  0  0  0
    7.9648   -0.0320    0.0000 C   0  0  0  0  0  0  0  0  0  0  0  0
   16.0369   -2.0091    0.0000 C   0  0  0  0  0  0  0  0  0  0  0  0
    8.0521    0.9985    0.0000 C   0  0  0  0  0  0  0  0  0  0  0  0
   15.1450    4.5254    0.0000 C   0  0  0  0  0  0  0  0  0  0  0  0
    9.5062    1.7244    0.0000 C   0  0  0  0  0  0  0  0  0  0  0  0
    7.5256   -3.2571    0.0000 H   0  0  0  0  0  0  0  0  0  0  0  0
   11.0671   -3.8696    0.0000 H   0  0  0  0  0  0  0  0  0  0  0  0
    5.1385   -0.9364    0.0000 H   0  0  0  0  0  0  0  0  0  0  0  0
   13.5318   -0.4564    0.0000 H   0  0  0  0  0  0  0  0  0  0  0  0
    5.4484    2.3739    0.0000 H   0  0  0  0  0  0  0  0  0  0  0  0
   12.3627    3.5393    0.0000 H   0  0  0  0  0  0  0  0  0  0  0  0
    8.1846    4.1543    0.0000 H   0  0  0  0  0  0  0  0  0  0  0  0
    7.1905   -1.8777    0.0000 H   0  0  0  0  0  0  0  0  0  0  0  0
   10.5669   -2.5411    0.0000 H   0  0  0  0  0  0  0  0  0  0  0  0
    3.7320   -0.7443    0.0000 H   0  0  0  0  0  0  0  0  0  0  0  0
   12.1813   -0.0191    0.0000 H   0  0  0  0  0  0  0  0  0  0  0  0
    4.7218    3.5932    0.0000 H   0  0  0  0  0  0  0  0  0  0  0  0
   11.1853    2.7517    0.0000 H   0  0  0  0  0  0  0  0  0  0  0  0
    9.7253    5.7856    0.0000 H   0  0  0  0  0  0  0  0  0  0  0  0
    9.1663   -2.3101    0.0000 H   0  0  0  0  0  0  0  0  0  0  0  0
    5.9029   -1.3999    0.0000 H   0  0  0  0  0  0  0  0  0  0  0  0
   11.1274   -0.9701    0.0000 H   0  0  0  0  0  0  0  0  0  0  0  0
    3.7320    1.4997    0.0000 H   0  0  0  0  0  0  0  0  0  0  0  0
   12.1590    0.7299    0.0000 H   0  0  0  0  0  0  0  0  0  0  0  0
    5.4144    4.8323    0.0000 H   0  0  0  0  0  0  0  0  0  0  0  0
   10.8870    4.9697    0.0000 H   0  0  0  0  0  0  0  0  0  0  0  0
    9.2921   -3.7240    0.0000 H   0  0  0  0  0  0  0  0  0  0  0  0
    5.8632   -2.6182    0.0000 H   0  0  0  0  0  0  0  0  0  0  0  0
   12.3928   -2.8233    0.0000 H   0  0  0  0  0  0  0  0  0  0  0  0
    5.1385    1.6917    0.0000 H   0  0  0  0  0  0  0  0  0  0  0  0
   13.5107    1.1872    0.0000 H   0  0  0  0  0  0  0  0  0  0  0  0
    7.5033    4.0125    0.0000 H   0  0  0  0  0  0  0  0  0  0  0  0
   10.7612    3.5557    0.0000 H   0  0  0  0  0  0  0  0  0  0  0  0
    5.4367   -4.0770    0.0000 H   0  0  0  0  0  0  0  0  0  0  0  0
   10.1667   -4.9670    0.0000 H   0  0  0  0  0  0  0  0  0  0  0  0
    6.0081    0.1857    0.0000 H   0  0  0  0  0  0  0  0  0  0  0  0
   13.8284   -1.8446    0.0000 H   0  0  0  0  0  0  0  0  0  0  0  0
    6.8679    2.3936    0.0000 H   0  0  0  0  0  0  0  0  0  0  0  0
   13.6394    2.9013    0.0000 H   0  0  0  0  0  0  0  0  0  0  0  0
    9.0994    3.0431    0.0000 H   0  0  0  0  0  0  0  0  0  0  0  0
    5.9876   -5.4470    0.0000 H   0  0  0  0  0  0  0  0  0  0  0  0
    6.4846   -4.8238    0.0000 H   0  0  0  0  0  0  0  0  0  0  0  0
   11.5813   -5.3905    0.0000 H   0  0  0  0  0  0  0  0  0  0  0  0
   11.4040   -4.6134    0.0000 H   0  0  0  0  0  0  0  0  0  0  0  0
    5.9965   -1.1424    0.0000 H   0  0  0  0  0  0  0  0  0  0  0  0
    6.8345   -0.9946    0.0000 H   0  0  0  0  0  0  0  0  0  0  0  0
   15.0415   -1.0026    0.0000 H   0  0  0  0  0  0  0  0  0  0  0  0
   14.3233   -0.6567    0.0000 H   0  0  0  0  0  0  0  0  0  0  0  0
    5.8268    1.5389    0.0000 H   0  0  0  0  0  0  0  0  0  0  0  0
    6.5322    1.0182    0.0000 H   0  0  0  0  0  0  0  0  0  0  0  0
   13.7375    4.3747    0.0000 H   0  0  0  0  0  0  0  0  0  0  0  0
   13.0194    4.0289    0.0000 H   0  0  0  0  0  0  0  0  0  0  0  0
    7.8621    3.3968    0.0000 H   0  0  0  0  0  0  0  0  0  0  0  0
    7.6848    2.6197    0.0000 H   0  0  0  0  0  0  0  0  0  0  0  0
    7.9366   -2.7385    0.0000 H   0  0  0  0  0  0  0  0  0  0  0  0
    9.6648   -1.5408    0.0000 H   0  0  0  0  0  0  0  0  0  0  0  0
    2.3291   -0.3143    0.0000 H   0  0  0  0  0  0  0  0  0  0  0  0
   10.8366   -0.1007    0.0000 H   0  0  0  0  0  0  0  0  0  0  0  0
    4.1832    4.9582    0.0000 H   0  0  0  0  0  0  0  0  0  0  0  0
   10.1079    1.7555    0.0000 H   0  0  0  0  0  0  0  0  0  0  0  0
    9.4306    6.7411    0.0000 H   0  0  0  0  0  0  0  0  0  0  0  0
    9.1906   -1.3967    0.0000 H   0  0  0  0  0  0  0  0  0  0  0  0
    8.7809   -0.6215    0.0000 H   0  0  0  0  0  0  0  0  0  0  0  0
    8.0057   -1.0312    0.0000 H   0  0  0  0  0  0  0  0  0  0  0  0
    7.8065   -1.5814    0.0000 H   0  0  0  0  0  0  0  0  0  0  0  0
    8.4109   -0.9462    0.0000 H   0  0  0  0  0  0  0  0  0  0  0  0
    7.7756   -0.3418    0.0000 H   0  0  0  0  0  0  0  0  0  0  0  0
   10.4284   -0.3816    0.0000 H   0  0  0  0  0  0  0  0  0  0  0  0
    9.5668   -0.2186    0.0000 H   0  0  0  0  0  0  0  0  0  0  0  0
    9.4038   -1.0801    0.0000 H   0  0  0  0  0  0  0  0  0  0  0  0
    1.6900    1.4166    0.0000 H   0  0  0  0  0  0  0  0  0  0  0  0
    1.4631    0.5697    0.0000 H   0  0  0  0  0  0  0  0  0  0  0  0
    2.3100    0.3428    0.0000 H   0  0  0  0  0  0  0  0  0  0  0  0
   10.3758    1.1552    0.0000 H   0  0  0  0  0  0  0  0  0  0  0  0
    9.7112    0.5833    0.0000 H   0  0  0  0  0  0  0  0  0  0  0  0
   10.2831   -0.0813    0.0000 H   0  0  0  0  0  0  0  0  0  0  0  0
    5.1381    6.5371    0.0000 H   0  0  0  0  0  0  0  0  0  0  0  0
    4.3344    6.1865    0.0000 H   0  0  0  0  0  0  0  0  0  0  0  0
    4.6851    5.3828    0.0000 H   0  0  0  0  0  0  0  0  0  0  0  0
   11.2604    6.9790    0.0000 H   0  0  0  0  0  0  0  0  0  0  0  0
   10.4852    7.3887    0.0000 H   0  0  0  0  0  0  0  0  0  0  0  0
   10.0755    6.6135    0.0000 H   0  0  0  0  0  0  0  0  0  0  0  0
    4.1718   -6.1011    0.0000 H   0  0  0  0  0  0  0  0  0  0  0  0
    4.6924   -6.8065    0.0000 H   0  0  0  0  0  0  0  0  0  0  0  0
    5.3979   -6.2859    0.0000 H   0  0  0  0  0  0  0  0  0  0  0  0
   10.9606   -7.2180    0.0000 H   0  0  0  0  0  0  0  0  0  0  0  0
   11.8368   -7.2508    0.0000 H   0  0  0  0  0  0  0  0  0  0  0  0
   11.8695   -6.3746    0.0000 H   0  0  0  0  0  0  0  0  0  0  0  0
    7.8571   -0.6425    0.0000 H   0  0  0  0  0  0  0  0  0  0  0  0
    8.5753   -0.1396    0.0000 H   0  0  0  0  0  0  0  0  0  0  0  0
    8.0724    0.5786    0.0000 H   0  0  0  0  0  0  0  0  0  0  0  0
   16.0832   -2.6273    0.0000 H   0  0  0  0  0  0  0  0  0  0  0  0
   16.6551   -1.9627    0.0000 H   0  0  0  0  0  0  0  0  0  0  0  0
   15.9905   -1.3908    0.0000 H   0  0  0  0  0  0  0  0  0  0  0  0
    7.5674    0.6120    0.0000 H   0  0  0  0  0  0  0  0  0  0  0  0
    8.4387    0.5138    0.0000 H   0  0  0  0  0  0  0  0  0  0  0  0
    8.5369    1.3851    0.0000 H   0  0  0  0  0  0  0  0  0  0  0  0
   15.6573    4.1761    0.0000 H   0  0  0  0  0  0  0  0  0  0  0  0
   15.4943    5.0376    0.0000 H   0  0  0  0  0  0  0  0  0  0  0  0
   14.6327    4.8746    0.0000 H   0  0  0  0  0  0  0  0  0  0  0  0
    9.3682    1.1200    0.0000 H   0  0  0  0  0  0  0  0  0  0  0  0
   10.1106    1.5865    0.0000 H   0  0  0  0  0  0  0  0  0  0  0  0
    9.6441    2.3289    0.0000 H   0  0  0  0  0  0  0  0  0  0  0  0
  1 36  1  0  0  0  0
  1 57  1  0  0  0  0
  2 37  1  0  0  0  0
  2 59  1  0  0  0  0
  3 38  1  0  0  0  0
  3 58  1  0  0  0  0
  4 39  1  0  0  0  0
  4 61  1  0  0  0  0
  5 40  1  0  0  0  0
  5 60  1  0  0  0  0
  6 41  1  0  0  0  0
  6 63  1  0  0  0  0
  7 42  1  0  0  0  0
  7 62  1  0  0  0  0
  8 57  1  0  0  0  0
  8 65  1  0  0  0  0
  9 58  1  0  0  0  0
  9 64  1  0  0  0  0
 10 59  1  0  0  0  0
 10 67  1  0  0  0  0
 11 60  1  0  0  0  0
 11 66  1  0  0  0  0
 12 61  1  0  0  0  0
 12 69  1  0  0  0  0
 13 62  1  0  0  0  0
 13 68  1  0  0  0  0
 14 63  1  0  0  0  0
 14 70  1  0  0  0  0
 15 50  1  0  0  0  0
 15 78  1  0  0  0  0
 16 51  1  0  0  0  0
 16 79  1  0  0  0  0
 17 52  1  0  0  0  0
 17 80  1  0  0  0  0
 18 53  1  0  0  0  0
 18 81  1  0  0  0  0
 19 54  1  0  0  0  0
 19 82  1  0  0  0  0
 20 55  1  0  0  0  0
 20 83  1  0  0  0  0
 21 56  1  0  0  0  0
 21 84  1  0  0  0  0
 22 43  1  0  0  0  0
 22141  1  0  0  0  0
 23 44  1  0  0  0  0
 23142  1  0  0  0  0
 24 45  1  0  0  0  0
 24143  1  0  0  0  0
 25 46  1  0  0  0  0
 25144  1  0  0  0  0
 26 47  1  0  0  0  0
 26145  1  0  0  0  0
 27 48  1  0  0  0  0
 27146  1  0  0  0  0
 28 49  1  0  0  0  0
 28147  1  0  0  0  0
 29 71  1  0  0  0  0
 29 85  1  0  0  0  0
 30 72  1  0  0  0  0
 30 86  1  0  0  0  0
 31 73  1  0  0  0  0
 31 87  1  0  0  0  0
 32 74  1  0  0  0  0
 32 88  1  0  0  0  0
 33 75  1  0  0  0  0
 33 89  1  0  0  0  0
 34 76  1  0  0  0  0
 34 90  1  0  0  0  0
 35 77  1  0  0  0  0
 35 91  1  0  0  0  0
 36 43  1  0  0  0  0
 36 64  1  0  0  0  0
 36 92  1  0  0  0  0
 37 44  1  0  0  0  0
 37 65  1  0  0  0  0
 37 93  1  0  0  0  0
 38 45  1  0  0  0  0
 38 66  1  0  0  0  0
 38 94  1  0  0  0  0
 39 46  1  0  0  0  0
 39 67  1  0  0  0  0
 39 95  1  0  0  0  0
 40 47  1  0  0  0  0
 40 68  1  0  0  0  0
 40 96  1  0  0  0  0
 41 48  1  0  0  0  0
 41 69  1  0  0  0  0
 41 97  1  0  0  0  0
 42 49  1  0  0  0  0
 42 70  1  0  0  0  0
 42 98  1  0  0  0  0
 43 51  1  0  0  0  0
 43 99  1  0  0  0  0
 44 50  1  0  0  0  0
 44100  1  0  0  0  0
 45 53  1  0  0  0  0
 45101  1  0  0  0  0
 46 52  1  0  0  0  0
 46102  1  0  0  0  0
 47 55  1  0  0  0  0
 47103  1  0  0  0  0
 48 54  1  0  0  0  0
 48104  1  0  0  0  0
 49 56  1  0  0  0  0
 49105  1  0  0  0  0
 50 57  1  0  0  0  0
 50106  1  0  0  0  0
 51 58  1  0  0  0  0
 51107  1  0  0  0  0
 52 59  1  0  0  0  0
 52108  1  0  0  0  0
 53 60  1  0  0  0  0
 53109  1  0  0  0  0
 54 61  1  0  0  0  0
 54110  1  0  0  0  0
 55 62  1  0  0  0  0
 55111  1  0  0  0  0
 56 63  1  0  0  0  0
 56112  1  0  0  0  0
 57113  1  0  0  0  0
 58114  1  0  0  0  0
 59115  1  0  0  0  0
 60116  1  0  0  0  0
 61117  1  0  0  0  0
 62118  1  0  0  0  0
 63119  1  0  0  0  0
 64 71  1  0  0  0  0
 64120  1  0  0  0  0
 65 72  1  0  0  0  0
 65121  1  0  0  0  0
 66 73  1  0  0  0  0
 66122  1  0  0  0  0
 67 74  1  0  0  0  0
 67123  1  0  0  0  0
 68 75  1  0  0  0  0
 68124  1  0  0  0  0
 69 76  1  0  0  0  0
 69125  1  0  0  0  0
 70 77  1  0  0  0  0
 70126  1  0  0  0  0
 71127  1  0  0  0  0
 71128  1  0  0  0  0
 72129  1  0  0  0  0
 72130  1  0  0  0  0
 73131  1  0  0  0  0
 73132  1  0  0  0  0
 74133  1  0  0  0  0
 74134  1  0  0  0  0
 75135  1  0  0  0  0
 75136  1  0  0  0  0
 76137  1  0  0  0  0
 76138  1  0  0  0  0
 77139  1  0  0  0  0
 77140  1  0  0  0  0
 78148  1  0  0  0  0
 78149  1  0  0  0  0
 78150  1  0  0  0  0
 79151  1  0  0  0  0
 79152  1  0  0  0  0
 79153  1  0  0  0  0
 80154  1  0  0  0  0
 80155  1  0  0  0  0
 80156  1  0  0  0  0
 81157  1  0  0  0  0
 81158  1  0  0  0  0
 81159  1  0  0  0  0
 82160  1  0  0  0  0
 82161  1  0  0  0  0
 82162  1  0  0  0  0
 83163  1  0  0  0  0
 83164  1  0  0  0  0
 83165  1  0  0  0  0
 84166  1  0  0  0  0
 84167  1  0  0  0  0
 84168  1  0  0  0  0
 85169  1  0  0  0  0
 85170  1  0  0  0  0
 85171  1  0  0  0  0
 86172  1  0  0  0  0
 86173  1  0  0  0  0
 86174  1  0  0  0  0
 87175  1  0  0  0  0
 87176  1  0  0  0  0
 87177  1  0  0  0  0
 88178  1  0  0  0  0
 88179  1  0  0  0  0
 88180  1  0  0  0  0
 89181  1  0  0  0  0
 89182  1  0  0  0  0
 89183  1  0  0  0  0
 90184  1  0  0  0  0
 90185  1  0  0  0  0
 90186  1  0  0  0  0
 91187  1  0  0  0  0
 91188  1  0  0  0  0
 91189  1  0  0  0  0
M  END
> <PUBCHEM_COMPOUND_CID>
122143

> <PUBCHEM_COMPOUND_CANONICALIZED>
1

> <PUBCHEM_CACTVS_COMPLEXITY>
1690

> <PUBCHEM_CACTVS_HBOND_ACCEPTOR>
35

> <PUBCHEM_CACTVS_HBOND_DONOR>
7

> <PUBCHEM_CACTVS_ROTATABLE_BOND>
21

> <PUBCHEM_CACTVS_SUBSKEYS>
AAADcfB8PgAAAAAAAAAAAAAAAAAAAAAAAAAkSJEiQAAAAAAAAAAAGgAACAAACBSwgAMCCAAABgAAAAAAAAAAAAAAAAAAAAAAAAAREAIAAAAiQAAFAAAHAAHAYAwAAAAAAAAAAAAAAAAAAAAAAAAAAAAAAA==

> <PUBCHEM_IUPAC_OPENEYE_NAME>
37,39,41,43,45,47,49-heptamethoxy-5,10,15,20,25,30,35-heptakis(methoxymethyl)-2,4,7,9,12,14,17,19,22,24,27,29,32,34-tetradecaoxaoctacyclo[31.2.2.23,6.28,11.213,16.218,21.223,26.228,31]nonatetracontane-36,38,40,42,44,46,48-heptol

> <PUBCHEM_IUPAC_CAS_NAME>
37,39,41,43,45,47,49-heptamethoxy-5,10,15,20,25,30,35-heptakis(methoxymethyl)-2,4,7,9,12,14,17,19,22,24,27,29,32,34-tetradecaoxaoctacyclo[31.2.2.23,6.28,11.213,16.218,21.223,26.228,31]nonatetracontane-36,38,40,42,44,46,48-heptol

> <PUBCHEM_IUPAC_NAME_MARKUP>
37,39,41,43,45,47,49-heptamethoxy-5,10,15,20,25,30,35-heptakis(methoxymethyl)-2,4,7,9,12,14,17,19,22,24,27,29,32,34-tetradecaoxaoctacyclo[31.2.2.2<SUP>3,6</SUP>.2<SUP>8,11</SUP>.2<SUP>13,16</SUP>.2<SUP>18,21</SUP>.2<SUP>23,26</SUP>.2<SUP>28,31</SUP>]nonatetracontane-36,38,40,42,44,46,48-heptol

> <PUBCHEM_IUPAC_NAME>
37,39,41,43,45,47,49-heptamethoxy-5,10,15,20,25,30,35-heptakis(methoxymethyl)-2,4,7,9,12,14,17,19,22,24,27,29,32,34-tetradecaoxaoctacyclo[31.2.2.23,6.28,11.213,16.218,21.223,26.228,31]nonatetracontane-36,38,40,42,44,46,48-heptol

> <PUBCHEM_IUPAC_SYSTEMATIC_NAME>
37,39,41,43,45,47,49-heptamethoxy-5,10,15,20,25,30,35-heptakis(methoxymethyl)-2,4,7,9,12,14,17,19,22,24,27,29,32,34-tetradecaoxaoctacyclo[31.2.2.23,6.28,11.213,16.218,21.223,26.228,31]nonatetracontane-36,38,40,42,44,46,48-heptol

> <PUBCHEM_IUPAC_TRADITIONAL_NAME>
37,39,41,43,45,47,49-heptamethoxy-5,10,15,20,25,30,35-heptakis(methoxymethyl)-2,4,7,9,12,14,17,19,22,24,27,29,32,34-tetradecaoxaoctacyclo[31.2.2.23,6.28,11.213,16.218,21.223,26.228,31]nonatetracontane-36,38,40,42,44,46,48-heptol

> <PUBCHEM_IUPAC_INCHI>
InChI=1S/C56H98O35/c1-64-15-22-36-29(57)43(71-8)50(78-22)86-37-23(16-65-2)80-52(45(73-10)30(37)58)88-39-25(18-67-4)82-54(47(75-12)32(39)60)90-41-27(20-69-6)84-56(49(77-14)34(41)62)91-42-28(21-70-7)83-55(48(76-13)35(42)63)89-40-26(19-68-5)81-53(46(74-11)33(40)61)87-38-24(17-66-3)79-51(85-36)44(72-9)31(38)59/h22-63H,15-21H2,1-14H3

> <PUBCHEM_IUPAC_INCHIKEY>
QGKBSGBYSPTPKJ-UHFFFAOYSA-N

> <PUBCHEM_XLOGP3_AA>
-7.5

> <PUBCHEM_EXACT_MASS>
1330.588865

> <PUBCHEM_MOLECULAR_FORMULA>
C56H98O35

> <PUBCHEM_MOLECULAR_WEIGHT>
1331.4

> <PUBCHEM_OPENEYE_CAN_SMILES>
COCC1C2C(C(C(O1)OC3C(OC(C(C3O)OC)OC4C(OC(C(C4O)OC)OC5C(OC(C(C5O)OC)OC6C(OC(C(C6O)OC)OC7C(OC(C(C7O)OC)OC8C(OC(O2)C(C8O)OC)COC)COC)COC)COC)COC)COC)OC)O

> <PUBCHEM_OPENEYE_ISO_SMILES>
COCC1C2C(C(C(O1)OC3C(OC(C(C3O)OC)OC4C(OC(C(C4O)OC)OC5C(OC(C(C5O)OC)OC6C(OC(C(C6O)OC)OC7C(OC(C(C7O)OC)OC8C(OC(O2)C(C8O)OC)COC)COC)COC)COC)COC)COC)OC)O

> <PUBCHEM_CACTVS_TPSA>
400

> <PUBCHEM_MONOISOTOPIC_WEIGHT>
1330.588865

> <PUBCHEM_TOTAL_CHARGE>
0

> <PUBCHEM_HEAVY_ATOM_COUNT>
91

> <PUBCHEM_ATOM_DEF_STEREO_COUNT>
0

> <PUBCHEM_ATOM_UDEF_STEREO_COUNT>
35

> <PUBCHEM_BOND_DEF_STEREO_COUNT>
0

> <PUBCHEM_BOND_UDEF_STEREO_COUNT>
0

> <PUBCHEM_ISOTOPIC_ATOM_COUNT>
0

> <PUBCHEM_COMPONENT_COUNT>
1

> <PUBCHEM_CACTVS_TAUTO_COUNT>
-1

> <PUBCHEM_COORDINATE_TYPE>
1
5
255

> <PUBCHEM_BONDANNOTATIONS>
36  1  3
59  10  3
60  11  3
50  15  3
51  16  3
52  17  3
53  18  3
54  19  3
37  2  3
55  20  3
56  21  3
43  22  3
44  23  3
45  24  3
46  25  3
47  26  3
48  27  3
49  28  3
38  3  3
39  4  3
61  4  3
40  5  3
41  6  3
63  6  3
64  71  3
65  72  3
66  73  3
67  74  3
68  75  3
69  76  3
42  7  3
62  7  3
70  77  3
57  8  3
58  9  3

$$$$
