16760621
 OpenBabel05262015012D

 39 41  0  0  0  0  0  0  0  0999 V2000
    9.2620    3.1980    0.0000 O   0  0  0  0  0  0  0  0  0  0  0  0
    3.1280    3.7255    0.0000 O   0  0  0  0  0  0  0  0  0  0  0  0
    7.5299    3.1980    0.0000 N   0  0  0  0  0  0  0  0  0  0  0  0
    3.9998    5.2221    0.0000 N   0  0  0  0  0  0  0  0  0  0  0  0
    1.3998    4.7322    0.0000 N   0  0  0  0  0  0  0  0  0  0  0  0
    6.6639    4.6980    0.0000 C   0  0  0  0  0  0  0  0  0  0  0  0
    7.5299    5.1980    0.0000 C   0  0  0  0  0  0  0  0  0  0  0  0
    6.6639    3.6980    0.0000 C   0  0  0  0  0  0  0  0  0  0  0  0
    8.3960    4.6980    0.0000 C   0  0  0  0  0  0  0  0  0  0  0  0
    5.7700    5.2326    0.0000 C   0  0  0  0  0  0  0  0  0  0  0  0
    4.8639    4.7188    0.0000 C   0  0  0  0  0  0  0  0  0  0  0  0
    5.7700    3.1633    0.0000 C   0  0  0  0  0  0  0  0  0  0  0  0
    8.3960    3.6980    0.0000 C   0  0  0  0  0  0  0  0  0  0  0  0
    4.8639    3.6772    0.0000 C   0  0  0  0  0  0  0  0  0  0  0  0
    7.5139    6.2395    0.0000 C   0  0  0  0  0  0  0  0  0  0  0  0
    9.3060    5.2048    0.0000 C   0  0  0  0  0  0  0  0  0  0  0  0
    2.2678    5.2288    0.0000 C   0  0  0  0  0  0  0  0  0  0  0  0
    8.4119    6.7672    0.0000 C   0  0  0  0  0  0  0  0  0  0  0  0
    9.3140    6.2464    0.0000 C   0  0  0  0  0  0  0  0  0  0  0  0
    3.1319    4.7255    0.0000 C   0  0  0  0  0  0  0  0  0  0  0  0
    0.5357    5.2355    0.0000 C   0  0  0  0  0  0  0  0  0  0  0  0
    1.3960    3.7322    0.0000 C   0  0  0  0  0  0  0  0  0  0  0  0
    5.7771    5.8526    0.0000 H   0  0  0  0  0  0  0  0  0  0  0  0
    7.5299    2.5780    0.0000 H   0  0  0  0  0  0  0  0  0  0  0  0
    5.7771    2.5434    0.0000 H   0  0  0  0  0  0  0  0  0  0  0  0
    4.3282    3.3651    0.0000 H   0  0  0  0  0  0  0  0  0  0  0  0
    6.9734    6.5433    0.0000 H   0  0  0  0  0  0  0  0  0  0  0  0
    9.8393    4.8886    0.0000 H   0  0  0  0  0  0  0  0  0  0  0  0
    4.0022    5.8421    0.0000 H   0  0  0  0  0  0  0  0  0  0  0  0
    2.6681    5.7022    0.0000 H   0  0  0  0  0  0  0  0  0  0  0  0
    1.8711    5.7053    0.0000 H   0  0  0  0  0  0  0  0  0  0  0  0
    8.4095    7.3872    0.0000 H   0  0  0  0  0  0  0  0  0  0  0  0
    9.8521    6.5544    0.0000 H   0  0  0  0  0  0  0  0  0  0  0  0
    0.8478    5.7712    0.0000 H   0  0  0  0  0  0  0  0  0  0  0  0
    0.0000    5.5476    0.0000 H   0  0  0  0  0  0  0  0  0  0  0  0
    0.2237    4.6998    0.0000 H   0  0  0  0  0  0  0  0  0  0  0  0
    0.7760    3.7346    0.0000 H   0  0  0  0  0  0  0  0  0  0  0  0
    1.3936    3.1122    0.0000 H   0  0  0  0  0  0  0  0  0  0  0  0
    2.0160    3.7298    0.0000 H   0  0  0  0  0  0  0  0  0  0  0  0
  1 13  2  0  0  0  0
  2 20  2  0  0  0  0
  3  8  1  0  0  0  0
  3 13  1  0  0  0  0
  3 24  1  0  0  0  0
  4 11  1  0  0  0  0
  4 20  1  0  0  0  0
  4 29  1  0  0  0  0
  5 17  1  0  0  0  0
  5 21  1  0  0  0  0
  5 22  1  0  0  0  0
  6  7  1  0  0  0  0
  6  8  2  0  0  0  0
  6 10  1  0  0  0  0
  7  9  1  0  0  0  0
  7 15  2  0  0  0  0
  8 12  1  0  0  0  0
  9 13  1  0  0  0  0
  9 16  2  0  0  0  0
 10 11  2  0  0  0  0
 10 23  1  0  0  0  0
 11 14  1  0  0  0  0
 12 14  2  0  0  0  0
 12 25  1  0  0  0  0
 14 26  1  0  0  0  0
 15 18  1  0  0  0  0
 15 27  1  0  0  0  0
 16 19  1  0  0  0  0
 16 28  1  0  0  0  0
 17 20  1  0  0  0  0
 17 30  1  0  0  0  0
 17 31  1  0  0  0  0
 18 19  2  0  0  0  0
 18 32  1  0  0  0  0
 19 33  1  0  0  0  0
 21 34  1  0  0  0  0
 21 35  1  0  0  0  0
 21 36  1  0  0  0  0
 22 37  1  0  0  0  0
 22 38  1  0  0  0  0
 22 39  1  0  0  0  0
M  END
>  <PUBCHEM_COMPOUND_CID>
16760621

>  <PUBCHEM_COMPOUND_CANONICALIZED>
1

>  <PUBCHEM_CACTVS_COMPLEXITY>
438

>  <PUBCHEM_CACTVS_HBOND_ACCEPTOR>
3

>  <PUBCHEM_CACTVS_HBOND_DONOR>
3

>  <PUBCHEM_CACTVS_ROTATABLE_BOND>
3

>  <PUBCHEM_CACTVS_SUBSKEYS>
AAADceB7MAAEAAAAAAAAAAAAAAAAAAAAAAA8YIAAAAAAAACxQAAAHgAQAAAADAjBmAQywIPAAACIAiVSUACCAAAlAgAIiAGIZMgIYDLAlbGUIQhglADIyYcYicCegACAQAASAAAAAQCAACQAAAAAAAAAAA==

>  <PUBCHEM_IUPAC_OPENEYE_NAME>
2-(dimethylamino)-N-(6-oxo-5H-phenanthridin-2-yl)acetamide;hydrochloride

>  <PUBCHEM_IUPAC_CAS_NAME>
2-(dimethylamino)-N-(6-oxo-5H-phenanthridin-2-yl)acetamide;hydrochloride

>  <PUBCHEM_IUPAC_NAME_MARKUP>
2-(dimethylamino)-<I>N</I>-(6-oxo-5<I>H</I>-phenanthridin-2-yl)acetamide;hydrochloride

>  <PUBCHEM_IUPAC_NAME>
2-(dimethylamino)-N-(6-oxo-5H-phenanthridin-2-yl)acetamide;hydrochloride

>  <PUBCHEM_IUPAC_SYSTEMATIC_NAME>
2-(dimethylamino)-N-(6-oxidanylidene-5H-phenanthridin-2-yl)ethanamide;hydrochloride

>  <PUBCHEM_IUPAC_TRADITIONAL_NAME>
2-(dimethylamino)-N-(6-keto-5H-phenanthridin-2-yl)acetamide;hydrochloride

>  <PUBCHEM_IUPAC_INCHI>
InChI=1S/C17H17N3O2.ClH/c1-20(2)10-16(21)18-11-7-8-15-14(9-11)12-5-3-4-6-13(12)17(22)19-15;/h3-9H,10H2,1-2H3,(H,18,21)(H,19,22);1H

>  <PUBCHEM_IUPAC_INCHIKEY>
RURAZZMDMNRXMI-UHFFFAOYSA-N

>  <PUBCHEM_EXACT_MASS>
331.108754

>  <PUBCHEM_MOLECULAR_FORMULA>
C17H18ClN3O2

>  <PUBCHEM_MOLECULAR_WEIGHT>
331.8

>  <PUBCHEM_OPENEYE_CAN_SMILES>
CN(C)CC(=O)NC1=CC2=C(C=C1)NC(=O)C3=CC=CC=C32.Cl

>  <PUBCHEM_OPENEYE_ISO_SMILES>
CN(C)CC(=O)NC1=CC2=C(C=C1)NC(=O)C3=CC=CC=C32.Cl

>  <PUBCHEM_CACTVS_TPSA>
61.4

>  <PUBCHEM_MONOISOTOPIC_WEIGHT>
331.108754

>  <PUBCHEM_TOTAL_CHARGE>
0

>  <PUBCHEM_HEAVY_ATOM_COUNT>
23

>  <PUBCHEM_ATOM_DEF_STEREO_COUNT>
0

>  <PUBCHEM_ATOM_UDEF_STEREO_COUNT>
0

>  <PUBCHEM_BOND_DEF_STEREO_COUNT>
0

>  <PUBCHEM_BOND_UDEF_STEREO_COUNT>
0

>  <PUBCHEM_ISOTOPIC_ATOM_COUNT>
0

>  <PUBCHEM_COMPONENT_COUNT>
2

>  <PUBCHEM_CACTVS_TAUTO_COUNT>
-1

>  <PUBCHEM_COORDINATE_TYPE>
1
5
255

>  <PUBCHEM_BONDANNOTATIONS>
10  14  8
10  17  8
11  12  8
12  15  8
13  15  8
16  19  8
17  20  8
19  20  8
4  14  8
4  9  8
7  11  8
7  8  8
7  9  8
8  10  8
8  16  8
9  13  8

$$$$
