1794
  -OEChem-05262008352D

 39 40  0     0  0  0  0  0  0999 V2000
    6.0010    1.2147    0.0000 Cl  0  0  0  0  0  0  0  0  0  0  0  0
    3.4030   -2.2853    0.0000 O   0  0  0  0  0  0  0  0  0  0  0  0
    4.2690    2.2147    0.0000 N   0  0  0  0  0  0  0  0  0  0  0  0
    3.4030    0.7147    0.0000 N   0  0  0  0  0  0  0  0  0  0  0  0
    5.1350   -0.2853    0.0000 N   0  0  0  0  0  0  0  0  0  0  0  0
    2.5369   -0.7853    0.0000 N   0  0  0  0  0  0  0  0  0  0  0  0
    5.1350   -2.2853    0.0000 N   0  0  0  0  0  0  0  0  0  0  0  0
    6.0010   -3.7853    0.0000 N   0  0  0  0  0  0  0  0  0  0  0  0
    4.2690   -3.7853    0.0000 N   0  0  0  0  0  0  0  0  0  0  0  0
    3.7690    4.4053    0.0000 C   0  0  0  0  0  0  0  0  0  0  0  0
    4.7690    4.4053    0.0000 C   0  0  0  0  0  0  0  0  0  0  0  0
    3.1455    3.6235    0.0000 C   0  0  0  0  0  0  0  0  0  0  0  0
    5.3925    3.6235    0.0000 C   0  0  0  0  0  0  0  0  0  0  0  0
    3.3680    2.6486    0.0000 C   0  0  0  0  0  0  0  0  0  0  0  0
    5.1700    2.6486    0.0000 C   0  0  0  0  0  0  0  0  0  0  0  0
    4.2690    1.2147    0.0000 C   0  0  0  0  0  0  0  0  0  0  0  0
    5.1350    0.7147    0.0000 C   0  0  0  0  0  0  0  0  0  0  0  0
    3.4030   -0.2853    0.0000 C   0  0  0  0  0  0  0  0  0  0  0  0
    4.2690   -0.7853    0.0000 C   0  0  0  0  0  0  0  0  0  0  0  0
    4.2690   -1.7853    0.0000 C   0  0  0  0  0  0  0  0  0  0  0  0
    5.1350   -3.2853    0.0000 C   0  0  0  0  0  0  0  0  0  0  0  0
    3.9070    5.0098    0.0000 H   0  0  0  0  0  0  0  0  0  0  0  0
    3.2104    4.6743    0.0000 H   0  0  0  0  0  0  0  0  0  0  0  0
    5.3276    4.6743    0.0000 H   0  0  0  0  0  0  0  0  0  0  0  0
    4.6310    5.0098    0.0000 H   0  0  0  0  0  0  0  0  0  0  0  0
    2.7589    4.1082    0.0000 H   0  0  0  0  0  0  0  0  0  0  0  0
    2.5869    3.3545    0.0000 H   0  0  0  0  0  0  0  0  0  0  0  0
    5.9511    3.3545    0.0000 H   0  0  0  0  0  0  0  0  0  0  0  0
    5.7790    4.1082    0.0000 H   0  0  0  0  0  0  0  0  0  0  0  0
    2.7480    2.6486    0.0000 H   0  0  0  0  0  0  0  0  0  0  0  0
    3.2300    2.0441    0.0000 H   0  0  0  0  0  0  0  0  0  0  0  0
    5.3079    2.0441    0.0000 H   0  0  0  0  0  0  0  0  0  0  0  0
    5.7900    2.6486    0.0000 H   0  0  0  0  0  0  0  0  0  0  0  0
    2.0000   -0.4753    0.0000 H   0  0  0  0  0  0  0  0  0  0  0  0
    2.5369   -1.4053    0.0000 H   0  0  0  0  0  0  0  0  0  0  0  0
    6.0010   -4.4053    0.0000 H   0  0  0  0  0  0  0  0  0  0  0  0
    6.5380   -3.4753    0.0000 H   0  0  0  0  0  0  0  0  0  0  0  0
    4.2690   -4.4053    0.0000 H   0  0  0  0  0  0  0  0  0  0  0  0
    3.7320   -3.4753    0.0000 H   0  0  0  0  0  0  0  0  0  0  0  0
  1 17  1  0  0  0  0
  2 20  2  0  0  0  0
  3 14  1  0  0  0  0
  3 15  1  0  0  0  0
  3 16  1  0  0  0  0
  4 16  2  0  0  0  0
  4 18  1  0  0  0  0
  5 17  2  0  0  0  0
  5 19  1  0  0  0  0
  6 18  1  0  0  0  0
  6 34  1  0  0  0  0
  6 35  1  0  0  0  0
  7 20  1  0  0  0  0
  7 21  2  0  0  0  0
  8 21  1  0  0  0  0
  8 36  1  0  0  0  0
  8 37  1  0  0  0  0
  9 21  1  0  0  0  0
  9 38  1  0  0  0  0
  9 39  1  0  0  0  0
 10 11  1  0  0  0  0
 10 12  1  0  0  0  0
 10 22  1  0  0  0  0
 10 23  1  0  0  0  0
 11 13  1  0  0  0  0
 11 24  1  0  0  0  0
 11 25  1  0  0  0  0
 12 14  1  0  0  0  0
 12 26  1  0  0  0  0
 12 27  1  0  0  0  0
 13 15  1  0  0  0  0
 13 28  1  0  0  0  0
 13 29  1  0  0  0  0
 14 30  1  0  0  0  0
 14 31  1  0  0  0  0
 15 32  1  0  0  0  0
 15 33  1  0  0  0  0
 16 17  1  0  0  0  0
 18 19  2  0  0  0  0
 19 20  1  0  0  0  0
M  END
> <PUBCHEM_COMPOUND_CID>
1794

> <PUBCHEM_COMPOUND_CANONICALIZED>
1

> <PUBCHEM_CACTVS_COMPLEXITY>
393

> <PUBCHEM_CACTVS_HBOND_ACCEPTOR>
5

> <PUBCHEM_CACTVS_HBOND_DONOR>
3

> <PUBCHEM_CACTVS_ROTATABLE_BOND>
2

> <PUBCHEM_CACTVS_SUBSKEYS>
AAADceBzoAAEAAAAAAAAAAAAAAAAAAAAAAAsAAAABYAAAAABgAAAHgIQAAAACArBliQBsBNIEACoAQdwdACAgC0HECABEAGoVECAQEpAyCBUAIAIAALAAGEQAAAAAAAAAAAAAAAAAAAAAAAAAAAAAAAAAA==

> <PUBCHEM_IUPAC_OPENEYE_NAME>
3-amino-5-(azepan-1-yl)-6-chloro-N-(diaminomethylene)pyrazine-2-carboxamide

> <PUBCHEM_IUPAC_CAS_NAME>
3-amino-5-(1-azepanyl)-6-chloro-N-(diaminomethylidene)-2-pyrazinecarboxamide

> <PUBCHEM_IUPAC_NAME_MARKUP>
3-amino-5-(azepan-1-yl)-6-chloro-<I>N</I>-(diaminomethylidene)pyrazine-2-carboxamide

> <PUBCHEM_IUPAC_NAME>
3-amino-5-(azepan-1-yl)-6-chloro-N-(diaminomethylidene)pyrazine-2-carboxamide

> <PUBCHEM_IUPAC_SYSTEMATIC_NAME>
3-azanyl-5-(azepan-1-yl)-N-[bis(azanyl)methylidene]-6-chloranyl-pyrazine-2-carboxamide

> <PUBCHEM_IUPAC_TRADITIONAL_NAME>
3-amino-5-(azepan-1-yl)-6-chloro-N-(diaminomethylene)pyrazinamide

> <PUBCHEM_IUPAC_INCHI>
InChI=1S/C12H18ClN7O/c13-8-10(20-5-3-1-2-4-6-20)18-9(14)7(17-8)11(21)19-12(15)16/h1-6H2,(H2,14,18)(H4,15,16,19,21)

> <PUBCHEM_IUPAC_INCHIKEY>
RQQJJXVETXFINY-UHFFFAOYSA-N

> <PUBCHEM_XLOGP3_AA>
1.3

> <PUBCHEM_EXACT_MASS>
311.126136

> <PUBCHEM_MOLECULAR_FORMULA>
C12H18ClN7O

> <PUBCHEM_MOLECULAR_WEIGHT>
311.77

> <PUBCHEM_OPENEYE_CAN_SMILES>
C1CCCN(CC1)C2=NC(=C(N=C2Cl)C(=O)N=C(N)N)N

> <PUBCHEM_OPENEYE_ISO_SMILES>
C1CCCN(CC1)C2=NC(=C(N=C2Cl)C(=O)N=C(N)N)N

> <PUBCHEM_CACTVS_TPSA>
137

> <PUBCHEM_MONOISOTOPIC_WEIGHT>
311.126136

> <PUBCHEM_TOTAL_CHARGE>
0

> <PUBCHEM_HEAVY_ATOM_COUNT>
21

> <PUBCHEM_ATOM_DEF_STEREO_COUNT>
0

> <PUBCHEM_ATOM_UDEF_STEREO_COUNT>
0

> <PUBCHEM_BOND_DEF_STEREO_COUNT>
0

> <PUBCHEM_BOND_UDEF_STEREO_COUNT>
0

> <PUBCHEM_ISOTOPIC_ATOM_COUNT>
0

> <PUBCHEM_COMPONENT_COUNT>
1

> <PUBCHEM_CACTVS_TAUTO_COUNT>
-1

> <PUBCHEM_COORDINATE_TYPE>
1
5
255

> <PUBCHEM_BONDANNOTATIONS>
16  17  8
18  19  8
4  16  8
4  18  8
5  17  8
5  19  8

$$$$
