3189
  -OEChem-05262008352D

 54 54  0     1  0  0  0  0  0999 V2000
    8.5622   -0.3660    0.0000 O   0  0  0  0  0  0  0  0  0  0  0  0
    7.1962    2.0000    0.0000 O   0  0  0  0  0  0  0  0  0  0  0  0
   10.7942    0.5000    0.0000 O   0  0  0  0  0  0  0  0  0  0  0  0
    3.7320    1.0000    0.0000 O   0  0  0  0  0  0  0  0  0  0  0  0
    9.9282    2.0000    0.0000 O   0  0  0  0  0  0  0  0  0  0  0  0
    6.3301    0.5000    0.0000 N   0  0  0  0  0  0  0  0  0  0  0  0
    4.5981   -0.5000    0.0000 N   0  0  0  0  0  0  0  0  0  0  0  0
    8.0622    0.5000    0.0000 C   0  0  3  0  0  0  0  0  0  0  0  0
    9.0622    0.5000    0.0000 C   0  0  3  0  0  0  0  0  0  0  0  0
    5.4641    1.0000    0.0000 C   0  0  3  0  0  0  0  0  0  0  0  0
    5.4641    2.0000    0.0000 C   0  0  0  0  0  0  0  0  0  0  0  0
    7.1962    1.0000    0.0000 C   0  0  0  0  0  0  0  0  0  0  0  0
    4.5981    2.5000    0.0000 C   0  0  0  0  0  0  0  0  0  0  0  0
    4.5981    0.5000    0.0000 C   0  0  0  0  0  0  0  0  0  0  0  0
    9.9282    1.0000    0.0000 C   0  0  0  0  0  0  0  0  0  0  0  0
    4.5981    3.5000    0.0000 C   0  0  0  0  0  0  0  0  0  0  0  0
    3.7320    2.0000    0.0000 C   0  0  0  0  0  0  0  0  0  0  0  0
    3.7320   -2.0000    0.0000 C   0  0  0  0  0  0  0  0  0  0  0  0
    3.7320   -1.0000    0.0000 C   0  0  0  0  0  0  0  0  0  0  0  0
    2.8660   -2.5000    0.0000 C   0  0  0  0  0  0  0  0  0  0  0  0
    2.8660   -3.5000    0.0000 C   0  0  0  0  0  0  0  0  0  0  0  0
    2.0000   -2.0000    0.0000 C   0  0  0  0  0  0  0  0  0  0  0  0
   11.6603    1.0000    0.0000 C   0  0  0  0  0  0  0  0  0  0  0  0
   12.5263    0.5000    0.0000 C   0  0  0  0  0  0  0  0  0  0  0  0
    7.6238    0.0616    0.0000 H   0  0  0  0  0  0  0  0  0  0  0  0
    9.5006    0.0616    0.0000 H   0  0  0  0  0  0  0  0  0  0  0  0
    5.4641    0.3800    0.0000 H   0  0  0  0  0  0  0  0  0  0  0  0
    6.0747    1.8923    0.0000 H   0  0  0  0  0  0  0  0  0  0  0  0
    5.6762    2.5826    0.0000 H   0  0  0  0  0  0  0  0  0  0  0  0
    4.5981    1.8800    0.0000 H   0  0  0  0  0  0  0  0  0  0  0  0
    6.3301   -0.1200    0.0000 H   0  0  0  0  0  0  0  0  0  0  0  0
    3.9441   -2.5826    0.0000 H   0  0  0  0  0  0  0  0  0  0  0  0
    4.3426   -1.8923    0.0000 H   0  0  0  0  0  0  0  0  0  0  0  0
    3.5200   -0.4174    0.0000 H   0  0  0  0  0  0  0  0  0  0  0  0
    3.1215   -1.1077    0.0000 H   0  0  0  0  0  0  0  0  0  0  0  0
    5.2181    3.5000    0.0000 H   0  0  0  0  0  0  0  0  0  0  0  0
    4.5981    4.1200    0.0000 H   0  0  0  0  0  0  0  0  0  0  0  0
    3.9781    3.5000    0.0000 H   0  0  0  0  0  0  0  0  0  0  0  0
    3.4220    2.5369    0.0000 H   0  0  0  0  0  0  0  0  0  0  0  0
    3.1951    1.6900    0.0000 H   0  0  0  0  0  0  0  0  0  0  0  0
    4.0420    1.4631    0.0000 H   0  0  0  0  0  0  0  0  0  0  0  0
    2.8660   -1.8800    0.0000 H   0  0  0  0  0  0  0  0  0  0  0  0
    5.1350   -0.8100    0.0000 H   0  0  0  0  0  0  0  0  0  0  0  0
    2.2460   -3.5000    0.0000 H   0  0  0  0  0  0  0  0  0  0  0  0
    2.8660   -4.1200    0.0000 H   0  0  0  0  0  0  0  0  0  0  0  0
    3.4860   -3.5000    0.0000 H   0  0  0  0  0  0  0  0  0  0  0  0
    2.3100   -1.4631    0.0000 H   0  0  0  0  0  0  0  0  0  0  0  0
    1.4631   -1.6900    0.0000 H   0  0  0  0  0  0  0  0  0  0  0  0
    1.6900   -2.5369    0.0000 H   0  0  0  0  0  0  0  0  0  0  0  0
   12.0588    1.4750    0.0000 H   0  0  0  0  0  0  0  0  0  0  0  0
   11.2617    1.4750    0.0000 H   0  0  0  0  0  0  0  0  0  0  0  0
   12.2163   -0.0369    0.0000 H   0  0  0  0  0  0  0  0  0  0  0  0
   13.0632    0.1900    0.0000 H   0  0  0  0  0  0  0  0  0  0  0  0
   12.8363    1.0369    0.0000 H   0  0  0  0  0  0  0  0  0  0  0  0
  1  8  1  0  0  0  0
  1  9  1  0  0  0  0
  2 12  2  0  0  0  0
  3 15  1  0  0  0  0
  3 23  1  0  0  0  0
  4 14  2  0  0  0  0
  5 15  2  0  0  0  0
  6 10  1  0  0  0  0
  6 12  1  0  0  0  0
  6 31  1  0  0  0  0
  7 14  1  0  0  0  0
  7 19  1  0  0  0  0
  7 43  1  0  0  0  0
  8  9  1  0  0  0  0
  8 12  1  0  0  0  0
  8 25  1  0  0  0  0
  9 15  1  0  0  0  0
  9 26  1  0  0  0  0
 10 11  1  0  0  0  0
 10 14  1  0  0  0  0
 10 27  1  0  0  0  0
 11 13  1  0  0  0  0
 11 28  1  0  0  0  0
 11 29  1  0  0  0  0
 13 16  1  0  0  0  0
 13 17  1  0  0  0  0
 13 30  1  0  0  0  0
 16 36  1  0  0  0  0
 16 37  1  0  0  0  0
 16 38  1  0  0  0  0
 17 39  1  0  0  0  0
 17 40  1  0  0  0  0
 17 41  1  0  0  0  0
 18 19  1  0  0  0  0
 18 20  1  0  0  0  0
 18 32  1  0  0  0  0
 18 33  1  0  0  0  0
 19 34  1  0  0  0  0
 19 35  1  0  0  0  0
 20 21  1  0  0  0  0
 20 22  1  0  0  0  0
 20 42  1  0  0  0  0
 21 44  1  0  0  0  0
 21 45  1  0  0  0  0
 21 46  1  0  0  0  0
 22 47  1  0  0  0  0
 22 48  1  0  0  0  0
 22 49  1  0  0  0  0
 23 24  1  0  0  0  0
 23 50  1  0  0  0  0
 23 51  1  0  0  0  0
 24 52  1  0  0  0  0
 24 53  1  0  0  0  0
 24 54  1  0  0  0  0
M  END
> <PUBCHEM_COMPOUND_CID>
3189

> <PUBCHEM_COMPOUND_CANONICALIZED>
1

> <PUBCHEM_CACTVS_COMPLEXITY>
450

> <PUBCHEM_CACTVS_HBOND_ACCEPTOR>
5

> <PUBCHEM_CACTVS_HBOND_DONOR>
2

> <PUBCHEM_CACTVS_ROTATABLE_BOND>
11

> <PUBCHEM_CACTVS_SUBSKEYS>
AAADceB7OAAAAAAAAAAAAAAAEgAAAAAAAAAAAAAAAAAAAAAAAAAAHgAQAAAADTzhgAYCCALABAAIAAGQGAIAAAAAAAAAAIHIAAADQBYAgCQXAAAHNgCSAAA/AAAMAAAAAAAAAAAAAAAAAAAAAAAAAAAAAA==

> <PUBCHEM_IUPAC_OPENEYE_NAME>
ethyl 3-[[1-(isopentylcarbamoyl)-3-methyl-butyl]carbamoyl]oxirane-2-carboxylate

> <PUBCHEM_IUPAC_CAS_NAME>
3-[[[4-methyl-1-(3-methylbutylamino)-1-oxopentan-2-yl]amino]-oxomethyl]-2-oxiranecarboxylic acid ethyl ester

> <PUBCHEM_IUPAC_NAME_MARKUP>
ethyl 3-[[4-methyl-1-(3-methylbutylamino)-1-oxopentan-2-yl]carbamoyl]oxirane-2-carboxylate

> <PUBCHEM_IUPAC_NAME>
ethyl 3-[[4-methyl-1-(3-methylbutylamino)-1-oxopentan-2-yl]carbamoyl]oxirane-2-carboxylate

> <PUBCHEM_IUPAC_SYSTEMATIC_NAME>
ethyl 3-[[4-methyl-1-(3-methylbutylamino)-1-oxidanylidene-pentan-2-yl]carbamoyl]oxirane-2-carboxylate

> <PUBCHEM_IUPAC_TRADITIONAL_NAME>
3-[[1-(isoamylcarbamoyl)-3-methyl-butyl]carbamoyl]oxirane-2-carboxylic acid ethyl ester

> <PUBCHEM_IUPAC_INCHI>
InChI=1S/C17H30N2O5/c1-6-23-17(22)14-13(24-14)16(21)19-12(9-11(4)5)15(20)18-8-7-10(2)3/h10-14H,6-9H2,1-5H3,(H,18,20)(H,19,21)

> <PUBCHEM_IUPAC_INCHIKEY>
SRVFFFJZQVENJC-UHFFFAOYSA-N

> <PUBCHEM_XLOGP3_AA>
2.3

> <PUBCHEM_EXACT_MASS>
342.215472

> <PUBCHEM_MOLECULAR_FORMULA>
C17H30N2O5

> <PUBCHEM_MOLECULAR_WEIGHT>
342.4

> <PUBCHEM_OPENEYE_CAN_SMILES>
CCOC(=O)C1C(O1)C(=O)NC(CC(C)C)C(=O)NCCC(C)C

> <PUBCHEM_OPENEYE_ISO_SMILES>
CCOC(=O)C1C(O1)C(=O)NC(CC(C)C)C(=O)NCCC(C)C

> <PUBCHEM_CACTVS_TPSA>
97

> <PUBCHEM_MONOISOTOPIC_WEIGHT>
342.215472

> <PUBCHEM_TOTAL_CHARGE>
0

> <PUBCHEM_HEAVY_ATOM_COUNT>
24

> <PUBCHEM_ATOM_DEF_STEREO_COUNT>
0

> <PUBCHEM_ATOM_UDEF_STEREO_COUNT>
3

> <PUBCHEM_BOND_DEF_STEREO_COUNT>
0

> <PUBCHEM_BOND_UDEF_STEREO_COUNT>
0

> <PUBCHEM_ISOTOPIC_ATOM_COUNT>
0

> <PUBCHEM_COMPONENT_COUNT>
1

> <PUBCHEM_CACTVS_TAUTO_COUNT>
-1

> <PUBCHEM_COORDINATE_TYPE>
1
5
255

> <PUBCHEM_BONDANNOTATIONS>
10  11  3
8  12  3
9  15  3

$$$$
