41684
  -OEChem-05262008352D

 30 31  0     0  0  0  0  0  0999 V2000
    5.5211    1.2071    0.0000 S   0  0  0  0  0  0  0  0  0  0  0  0
    3.7320   -1.8807    0.0000 O   0  0  0  0  0  0  0  0  0  0  0  0
    4.5981   -0.3807    0.0000 O   0  0  0  0  0  0  0  0  0  0  0  0
    2.8660   -3.3807    0.0000 O   0  0  0  0  0  0  0  0  0  0  0  0
    5.6491    3.8807    0.0000 O   0  5  0  0  0  0  0  0  0  0  0  0
    4.2478    2.8626    0.0000 O   0  0  0  0  0  0  0  0  0  0  0  0
    6.3301   -0.3807    0.0000 N   0  0  0  0  0  0  0  0  0  0  0  0
    7.1391    1.2071    0.0000 N   0  0  0  0  0  0  0  0  0  0  0  0
    5.2423    2.9672    0.0000 N   0  3  0  0  0  0  0  0  0  0  0  0
    5.4641   -1.8807    0.0000 C   0  0  0  0  0  0  0  0  0  0  0  0
    4.5981   -2.3807    0.0000 C   0  0  0  0  0  0  0  0  0  0  0  0
    5.4641   -0.8807    0.0000 C   0  0  0  0  0  0  0  0  0  0  0  0
    6.3301   -2.3807    0.0000 C   0  0  0  0  0  0  0  0  0  0  0  0
    4.5981   -3.3807    0.0000 C   0  0  0  0  0  0  0  0  0  0  0  0
    6.3301   -3.3807    0.0000 C   0  0  0  0  0  0  0  0  0  0  0  0
    6.3301    0.6193    0.0000 C   0  0  0  0  0  0  0  0  0  0  0  0
    5.4641   -3.8807    0.0000 C   0  0  0  0  0  0  0  0  0  0  0  0
    5.8301    2.1581    0.0000 C   0  0  0  0  0  0  0  0  0  0  0  0
    6.8301    2.1581    0.0000 C   0  0  0  0  0  0  0  0  0  0  0  0
    2.8660   -2.3807    0.0000 C   0  0  0  0  0  0  0  0  0  0  0  0
    2.0000   -1.8807    0.0000 C   0  0  0  0  0  0  0  0  0  0  0  0
    6.8671   -2.0707    0.0000 H   0  0  0  0  0  0  0  0  0  0  0  0
    4.0611   -3.6907    0.0000 H   0  0  0  0  0  0  0  0  0  0  0  0
    6.8671   -0.6907    0.0000 H   0  0  0  0  0  0  0  0  0  0  0  0
    6.8671   -3.6907    0.0000 H   0  0  0  0  0  0  0  0  0  0  0  0
    5.4641   -4.5007    0.0000 H   0  0  0  0  0  0  0  0  0  0  0  0
    7.1946    2.6597    0.0000 H   0  0  0  0  0  0  0  0  0  0  0  0
    2.3100   -1.3438    0.0000 H   0  0  0  0  0  0  0  0  0  0  0  0
    1.4631   -1.5707    0.0000 H   0  0  0  0  0  0  0  0  0  0  0  0
    1.6900   -2.4176    0.0000 H   0  0  0  0  0  0  0  0  0  0  0  0
  1 16  1  0  0  0  0
  1 18  1  0  0  0  0
  2 11  1  0  0  0  0
  2 20  1  0  0  0  0
  3 12  2  0  0  0  0
  4 20  2  0  0  0  0
  5  9  1  0  0  0  0
  6  9  2  0  0  0  0
  7 12  1  0  0  0  0
  7 16  1  0  0  0  0
  7 24  1  0  0  0  0
  8 16  2  0  0  0  0
  8 19  1  0  0  0  0
  9 18  1  0  0  0  0
 10 11  1  0  0  0  0
 10 12  1  0  0  0  0
 10 13  2  0  0  0  0
 11 14  2  0  0  0  0
 13 15  1  0  0  0  0
 13 22  1  0  0  0  0
 14 17  1  0  0  0  0
 14 23  1  0  0  0  0
 15 17  2  0  0  0  0
 15 25  1  0  0  0  0
 17 26  1  0  0  0  0
 18 19  2  0  0  0  0
 19 27  1  0  0  0  0
 20 21  1  0  0  0  0
 21 28  1  0  0  0  0
 21 29  1  0  0  0  0
 21 30  1  0  0  0  0
M  CHG  2   5  -1   9   1
M  END
> <PUBCHEM_COMPOUND_CID>
41684

> <PUBCHEM_COMPOUND_CANONICALIZED>
1

> <PUBCHEM_CACTVS_COMPLEXITY>
428

> <PUBCHEM_CACTVS_HBOND_ACCEPTOR>
7

> <PUBCHEM_CACTVS_HBOND_DONOR>
1

> <PUBCHEM_CACTVS_ROTATABLE_BOND>
4

> <PUBCHEM_CACTVS_SUBSKEYS>
AAADccBzOABAAAAAAAAAAAAAAAAAAWAAAAAwAAAAAAAAAAABwAAAHgQUAAAADATB2gQ/n5LYVAitAjH3fwCC+Kl1OjlpyA0OPMqMZjaEvRuWO2ju4ZMIqaeYyCCOAAAAAAAIAAAAAAAAABAAAAAAAAAAAA==

> <PUBCHEM_IUPAC_OPENEYE_NAME>
[2-[(5-nitrothiazol-2-yl)carbamoyl]phenyl] acetate

> <PUBCHEM_IUPAC_CAS_NAME>
acetic acid [2-[[(5-nitro-2-thiazolyl)amino]-oxomethyl]phenyl] ester

> <PUBCHEM_IUPAC_NAME_MARKUP>
[2-[(5-nitro-1,3-thiazol-2-yl)carbamoyl]phenyl] acetate

> <PUBCHEM_IUPAC_NAME>
[2-[(5-nitro-1,3-thiazol-2-yl)carbamoyl]phenyl] acetate

> <PUBCHEM_IUPAC_SYSTEMATIC_NAME>
[2-[(5-nitro-1,3-thiazol-2-yl)carbamoyl]phenyl] ethanoate

> <PUBCHEM_IUPAC_TRADITIONAL_NAME>
acetic acid [2-[(5-nitrothiazol-2-yl)carbamoyl]phenyl] ester

> <PUBCHEM_IUPAC_INCHI>
InChI=1S/C12H9N3O5S/c1-7(16)20-9-5-3-2-4-8(9)11(17)14-12-13-6-10(21-12)15(18)19/h2-6H,1H3,(H,13,14,17)

> <PUBCHEM_IUPAC_INCHIKEY>
YQNQNVDNTFHQSW-UHFFFAOYSA-N

> <PUBCHEM_XLOGP3_AA>
2

> <PUBCHEM_EXACT_MASS>
307.026292

> <PUBCHEM_MOLECULAR_FORMULA>
C12H9N3O5S

> <PUBCHEM_MOLECULAR_WEIGHT>
307.28

> <PUBCHEM_OPENEYE_CAN_SMILES>
CC(=O)OC1=CC=CC=C1C(=O)NC2=NC=C(S2)[N+](=O)[O-]

> <PUBCHEM_OPENEYE_ISO_SMILES>
CC(=O)OC1=CC=CC=C1C(=O)NC2=NC=C(S2)[N+](=O)[O-]

> <PUBCHEM_CACTVS_TPSA>
142

> <PUBCHEM_MONOISOTOPIC_WEIGHT>
307.026292

> <PUBCHEM_TOTAL_CHARGE>
0

> <PUBCHEM_HEAVY_ATOM_COUNT>
21

> <PUBCHEM_ATOM_DEF_STEREO_COUNT>
0

> <PUBCHEM_ATOM_UDEF_STEREO_COUNT>
0

> <PUBCHEM_BOND_DEF_STEREO_COUNT>
0

> <PUBCHEM_BOND_UDEF_STEREO_COUNT>
0

> <PUBCHEM_ISOTOPIC_ATOM_COUNT>
0

> <PUBCHEM_COMPONENT_COUNT>
1

> <PUBCHEM_CACTVS_TAUTO_COUNT>
-1

> <PUBCHEM_COORDINATE_TYPE>
1
5
255

> <PUBCHEM_BONDANNOTATIONS>
1  16  8
1  18  8
10  11  8
10  13  8
11  14  8
13  15  8
14  17  8
15  17  8
18  19  8
8  16  8
8  19  8

$$$$
