5284616
  -OEChem-05262008352D

144147  0     1  0  0  0  0  0999 V2000
    6.7839   -2.6784    0.0000 O   0  0  0  0  0  0  0  0  0  0  0  0
    8.5159   -3.6783    0.0000 O   0  0  0  0  0  0  0  0  0  0  0  0
    9.0811    2.5274    0.0000 O   0  0  0  0  0  0  0  0  0  0  0  0
   13.5434   -1.0117    0.0000 O   0  0  0  0  0  0  0  0  0  0  0  0
   11.6916   -0.3436    0.0000 O   0  0  0  0  0  0  0  0  0  0  0  0
   10.2055    0.9963    0.0000 O   0  0  0  0  0  0  0  0  0  0  0  0
    6.2526    1.2771    0.0000 O   0  0  0  0  0  0  0  0  0  0  0  0
   13.0194    1.4280    0.0000 O   0  0  0  0  0  0  0  0  0  0  0  0
   11.6377   -1.0269    0.0000 O   0  0  0  0  0  0  0  0  0  0  0  0
   10.8113    0.9884    0.0000 O   0  0  0  0  0  0  0  0  0  0  0  0
    2.3100    1.1954    0.0000 O   0  0  0  0  0  0  0  0  0  0  0  0
    4.9410    0.8710    0.0000 O   0  0  0  0  0  0  0  0  0  0  0  0
    3.1511   -1.0117    0.0000 O   0  0  0  0  0  0  0  0  0  0  0  0
   11.8113    1.9883    0.0000 N   0  0  0  0  0  0  0  0  0  0  0  0
    8.5159   -0.6783    0.0000 C   0  0  1  0  0  0  0  0  0  0  0  0
    7.6499   -1.1783    0.0000 C   0  0  0  0  0  0  0  0  0  0  0  0
    9.3819   -1.1783    0.0000 C   0  0  0  0  0  0  0  0  0  0  0  0
    8.5158    0.3217    0.0000 C   0  0  0  0  0  0  0  0  0  0  0  0
    7.6499   -2.1784    0.0000 C   0  0  2  0  0  0  0  0  0  0  0  0
    9.3820   -2.1783    0.0000 C   0  0  0  0  0  0  0  0  0  0  0  0
    8.5159   -2.6783    0.0000 C   0  0  1  0  0  0  0  0  0  0  0  0
    7.8732    1.0877    0.0000 C   0  0  2  0  0  0  0  0  0  0  0  0
    8.2151    2.0274    0.0000 C   0  0  2  0  0  0  0  0  0  0  0  0
    6.8883    0.9140    0.0000 C   0  0  0  0  0  0  0  0  0  0  0  0
    7.3491    2.5274    0.0000 C   0  0  0  0  0  0  0  0  0  0  0  0
   13.5512    0.0064    0.0000 C   0  0  1  0  0  0  0  0  0  0  0  0
   10.9453    2.4883    0.0000 C   0  0  1  0  0  0  0  0  0  0  0  0
   12.6774   -0.5117    0.0000 C   0  0  2  0  0  0  0  0  0  0  0  0
   13.5434   -2.0117    0.0000 C   0  0  1  0  0  0  0  0  0  0  0  0
   14.4329   -0.4981    0.0000 C   0  0  0  0  0  0  0  0  0  0  0  0
   14.4289   -1.5140    0.0000 C   0  0  0  0  0  0  0  0  0  0  0  0
   10.9453    3.4883    0.0000 C   0  0  0  0  0  0  0  0  0  0  0  0
   10.0793    1.9883    0.0000 C   0  0  0  0  0  0  0  0  0  0  0  0
    6.3831    2.2686    0.0000 C   0  0  0  0  0  0  0  0  0  0  0  0
   12.6774    2.4883    0.0000 C   0  0  0  0  0  0  0  0  0  0  0  0
   11.8113    3.9883    0.0000 C   0  0  0  0  0  0  0  0  0  0  0  0
   12.6774    3.4883    0.0000 C   0  0  0  0  0  0  0  0  0  0  0  0
    6.7839   -3.6784    0.0000 C   0  0  0  0  0  0  0  0  0  0  0  0
   12.6774   -2.5117    0.0000 C   0  0  0  0  0  0  0  0  0  0  0  0
   12.6774    0.4883    0.0000 C   0  0  0  0  0  0  0  0  0  0  0  0
   11.8113    0.9883    0.0000 C   0  0  0  0  0  0  0  0  0  0  0  0
   14.1880    0.7774    0.0000 C   0  0  0  0  0  0  0  0  0  0  0  0
    5.5171    2.7686    0.0000 C   0  0  2  0  0  0  0  0  0  0  0  0
   11.8113   -2.0117    0.0000 C   0  0  1  0  0  0  0  0  0  0  0  0
    5.2583    3.7345    0.0000 C   0  0  0  0  0  0  0  0  0  0  0  0
    5.0171    1.9026    0.0000 C   0  0  0  0  0  0  0  0  0  0  0  0
   10.9453   -2.5117    0.0000 C   0  0  0  0  0  0  0  0  0  0  0  0
    4.0171    1.9026    0.0000 C   0  0  0  0  0  0  0  0  0  0  0  0
    3.3100    1.1954    0.0000 C   0  0  2  0  0  0  0  0  0  0  0  0
   10.9453   -3.5117    0.0000 C   0  0  0  0  0  0  0  0  0  0  0  0
   10.0793   -2.0117    0.0000 C   0  0  0  0  0  0  0  0  0  0  0  0
    4.0171    0.4883    0.0000 C   0  0  2  0  0  0  0  0  0  0  0  0
   10.6980   -0.6848    0.0000 C   0  0  0  0  0  0  0  0  0  0  0  0
    3.6344    2.8264    0.0000 C   0  0  0  0  0  0  0  0  0  0  0  0
    4.8831   -1.0117    0.0000 C   0  0  1  0  0  0  0  0  0  0  0  0
    4.0171   -0.5117    0.0000 C   0  0  0  0  0  0  0  0  0  0  0  0
    9.2133   -2.5117    0.0000 C   0  0  0  0  0  0  0  0  0  0  0  0
    5.7492   -0.5117    0.0000 C   0  0  0  0  0  0  0  0  0  0  0  0
    6.6152   -1.0117    0.0000 C   0  0  1  0  0  0  0  0  0  0  0  0
    4.8831   -2.0117    0.0000 C   0  0  0  0  0  0  0  0  0  0  0  0
    8.3472   -2.0117    0.0000 C   0  0  0  0  0  0  0  0  0  0  0  0
    6.6152   -2.0117    0.0000 C   0  0  0  0  0  0  0  0  0  0  0  0
    7.4812   -0.5117    0.0000 C   0  0  0  0  0  0  0  0  0  0  0  0
    7.4812   -2.5117    0.0000 C   0  0  0  0  0  0  0  0  0  0  0  0
    5.7343    0.2623    0.0000 C   0  0  0  0  0  0  0  0  0  0  0  0
    9.0528   -0.3683    0.0000 H   0  0  0  0  0  0  0  0  0  0  0  0
    7.4378   -0.5957    0.0000 H   0  0  0  0  0  0  0  0  0  0  0  0
    7.0393   -1.2860    0.0000 H   0  0  0  0  0  0  0  0  0  0  0  0
    9.9925   -1.2860    0.0000 H   0  0  0  0  0  0  0  0  0  0  0  0
    9.5939   -0.5957    0.0000 H   0  0  0  0  0  0  0  0  0  0  0  0
    9.1098    0.1439    0.0000 H   0  0  0  0  0  0  0  0  0  0  0  0
    8.8566    0.8397    0.0000 H   0  0  0  0  0  0  0  0  0  0  0  0
    7.6499   -2.7984    0.0000 H   0  0  0  0  0  0  0  0  0  0  0  0
    9.5940   -2.7609    0.0000 H   0  0  0  0  0  0  0  0  0  0  0  0
    9.9925   -2.0706    0.0000 H   0  0  0  0  0  0  0  0  0  0  0  0
    9.0528   -2.9883    0.0000 H   0  0  0  0  0  0  0  0  0  0  0  0
    7.6611    0.5051    0.0000 H   0  0  0  0  0  0  0  0  0  0  0  0
    8.8663    1.4811    0.0000 H   0  0  0  0  0  0  0  0  0  0  0  0
    6.7806    1.5246    0.0000 H   0  0  0  0  0  0  0  0  0  0  0  0
    6.2777    0.8064    0.0000 H   0  0  0  0  0  0  0  0  0  0  0  0
    6.9959    0.3034    0.0000 H   0  0  0  0  0  0  0  0  0  0  0  0
    7.7875    2.9658    0.0000 H   0  0  0  0  0  0  0  0  0  0  0  0
    7.0391    3.0643    0.0000 H   0  0  0  0  0  0  0  0  0  0  0  0
   13.1481    0.4775    0.0000 H   0  0  0  0  0  0  0  0  0  0  0  0
    9.0529   -3.9883    0.0000 H   0  0  0  0  0  0  0  0  0  0  0  0
   10.2092    2.9133    0.0000 H   0  0  0  0  0  0  0  0  0  0  0  0
   13.9641   -2.7502    0.0000 H   0  0  0  0  0  0  0  0  0  0  0  0
   15.0433   -0.6066    0.0000 H   0  0  0  0  0  0  0  0  0  0  0  0
   14.6442    0.0847    0.0000 H   0  0  0  0  0  0  0  0  0  0  0  0
   14.6357   -2.0984    0.0000 H   0  0  0  0  0  0  0  0  0  0  0  0
   15.0402   -1.4102    0.0000 H   0  0  0  0  0  0  0  0  0  0  0  0
   10.7333    4.0709    0.0000 H   0  0  0  0  0  0  0  0  0  0  0  0
   10.3347    3.3807    0.0000 H   0  0  0  0  0  0  0  0  0  0  0  0
   12.8894    1.9057    0.0000 H   0  0  0  0  0  0  0  0  0  0  0  0
   13.2879    2.5960    0.0000 H   0  0  0  0  0  0  0  0  0  0  0  0
   12.2099    4.4633    0.0000 H   0  0  0  0  0  0  0  0  0  0  0  0
   11.4128    4.4633    0.0000 H   0  0  0  0  0  0  0  0  0  0  0  0
   13.2879    3.3807    0.0000 H   0  0  0  0  0  0  0  0  0  0  0  0
   12.8894    4.0709    0.0000 H   0  0  0  0  0  0  0  0  0  0  0  0
   12.2788   -2.9866    0.0000 H   0  0  0  0  0  0  0  0  0  0  0  0
   13.0759   -2.9866    0.0000 H   0  0  0  0  0  0  0  0  0  0  0  0
    6.1639   -3.6784    0.0000 H   0  0  0  0  0  0  0  0  0  0  0  0
    6.7839   -4.2984    0.0000 H   0  0  0  0  0  0  0  0  0  0  0  0
    7.4039   -3.6784    0.0000 H   0  0  0  0  0  0  0  0  0  0  0  0
   14.6660    0.3825    0.0000 H   0  0  0  0  0  0  0  0  0  0  0  0
   14.5829    1.2554    0.0000 H   0  0  0  0  0  0  0  0  0  0  0  0
   13.7100    1.1722    0.0000 H   0  0  0  0  0  0  0  0  0  0  0  0
    6.0090    3.1460    0.0000 H   0  0  0  0  0  0  0  0  0  0  0  0
   12.3192   -1.6560    0.0000 H   0  0  0  0  0  0  0  0  0  0  0  0
   11.2144    0.0521    0.0000 H   0  0  0  0  0  0  0  0  0  0  0  0
    5.8572    3.8950    0.0000 H   0  0  0  0  0  0  0  0  0  0  0  0
    5.0978    4.3334    0.0000 H   0  0  0  0  0  0  0  0  0  0  0  0
    4.6594    3.5740    0.0000 H   0  0  0  0  0  0  0  0  0  0  0  0
    5.3271    1.3656    0.0000 H   0  0  0  0  0  0  0  0  0  0  0  0
   10.3253   -3.5117    0.0000 H   0  0  0  0  0  0  0  0  0  0  0  0
   10.9453   -4.1317    0.0000 H   0  0  0  0  0  0  0  0  0  0  0  0
   11.5653   -3.5117    0.0000 H   0  0  0  0  0  0  0  0  0  0  0  0
    3.0727    0.6226    0.0000 H   0  0  0  0  0  0  0  0  0  0  0  0
   10.0793   -1.3917    0.0000 H   0  0  0  0  0  0  0  0  0  0  0  0
    4.1381    1.0964    0.0000 H   0  0  0  0  0  0  0  0  0  0  0  0
   10.9100   -0.1022    0.0000 H   0  0  0  0  0  0  0  0  0  0  0  0
   10.1154   -0.4728    0.0000 H   0  0  0  0  0  0  0  0  0  0  0  0
   10.4859   -1.2674    0.0000 H   0  0  0  0  0  0  0  0  0  0  0  0
    4.2072    3.0637    0.0000 H   0  0  0  0  0  0  0  0  0  0  0  0
    3.3972    3.3992    0.0000 H   0  0  0  0  0  0  0  0  0  0  0  0
    3.0616    2.5892    0.0000 H   0  0  0  0  0  0  0  0  0  0  0  0
    4.3462   -1.3217    0.0000 H   0  0  0  0  0  0  0  0  0  0  0  0
    9.2133   -3.1317    0.0000 H   0  0  0  0  0  0  0  0  0  0  0  0
    6.1477   -0.0367    0.0000 H   0  0  0  0  0  0  0  0  0  0  0  0
    5.3506   -0.0367    0.0000 H   0  0  0  0  0  0  0  0  0  0  0  0
    2.0000    1.7324    0.0000 H   0  0  0  0  0  0  0  0  0  0  0  0
    6.6152   -0.3917    0.0000 H   0  0  0  0  0  0  0  0  0  0  0  0
    4.2631   -2.0117    0.0000 H   0  0  0  0  0  0  0  0  0  0  0  0
    4.8831   -2.6317    0.0000 H   0  0  0  0  0  0  0  0  0  0  0  0
    5.5031   -2.0117    0.0000 H   0  0  0  0  0  0  0  0  0  0  0  0
    8.3472   -1.3917    0.0000 H   0  0  0  0  0  0  0  0  0  0  0  0
    6.0782   -2.3217    0.0000 H   0  0  0  0  0  0  0  0  0  0  0  0
    7.7912   -1.0486    0.0000 H   0  0  0  0  0  0  0  0  0  0  0  0
    8.0181   -0.2017    0.0000 H   0  0  0  0  0  0  0  0  0  0  0  0
    7.1712    0.0253    0.0000 H   0  0  0  0  0  0  0  0  0  0  0  0
    7.4812   -3.1317    0.0000 H   0  0  0  0  0  0  0  0  0  0  0  0
    5.3569   -0.2296    0.0000 H   0  0  0  0  0  0  0  0  0  0  0  0
    6.2262   -0.1152    0.0000 H   0  0  0  0  0  0  0  0  0  0  0  0
    6.1118    0.7541    0.0000 H   0  0  0  0  0  0  0  0  0  0  0  0
 19  1  1  6  0  0  0
  1 38  1  0  0  0  0
 21  2  1  1  0  0  0
  2 85  1  0  0  0  0
  3 23  1  0  0  0  0
  3 33  1  0  0  0  0
  4 28  1  0  0  0  0
  4 29  1  0  0  0  0
 28  5  1  6  0  0  0
  5110  1  0  0  0  0
  6 33  2  0  0  0  0
  7 34  2  0  0  0  0
  8 40  2  0  0  0  0
 44  9  1  1  0  0  0
  9 53  1  0  0  0  0
 10 41  2  0  0  0  0
 49 11  1  6  0  0  0
 11131  1  0  0  0  0
 52 12  1  1  0  0  0
 12 65  1  0  0  0  0
 13 56  2  0  0  0  0
 14 27  1  0  0  0  0
 14 35  1  0  0  0  0
 14 41  1  0  0  0  0
 15 16  1  0  0  0  0
 15 17  1  0  0  0  0
 15 18  1  6  0  0  0
 15 66  1  0  0  0  0
 16 19  1  0  0  0  0
 16 67  1  0  0  0  0
 16 68  1  0  0  0  0
 17 20  1  0  0  0  0
 17 69  1  0  0  0  0
 17 70  1  0  0  0  0
 18 22  1  0  0  0  0
 18 71  1  0  0  0  0
 18 72  1  0  0  0  0
 19 21  1  0  0  0  0
 19 73  1  0  0  0  0
 20 21  1  0  0  0  0
 20 74  1  0  0  0  0
 20 75  1  0  0  0  0
 21 76  1  0  0  0  0
 22 23  1  0  0  0  0
 22 24  1  1  0  0  0
 22 77  1  0  0  0  0
 23 25  1  0  0  0  0
 23 78  1  1  0  0  0
 24 79  1  0  0  0  0
 24 80  1  0  0  0  0
 24 81  1  0  0  0  0
 25 34  1  0  0  0  0
 25 82  1  0  0  0  0
 25 83  1  0  0  0  0
 26 28  1  0  0  0  0
 26 30  1  0  0  0  0
 26 42  1  6  0  0  0
 26 84  1  0  0  0  0
 27 32  1  0  0  0  0
 27 33  1  0  0  0  0
 27 86  1  1  0  0  0
 28 40  1  0  0  0  0
 29 31  1  0  0  0  0
 29 39  1  0  0  0  0
 29 87  1  6  0  0  0
 30 31  1  0  0  0  0
 30 88  1  0  0  0  0
 30 89  1  0  0  0  0
 31 90  1  0  0  0  0
 31 91  1  0  0  0  0
 32 36  1  0  0  0  0
 32 92  1  0  0  0  0
 32 93  1  0  0  0  0
 34 43  1  0  0  0  0
 35 37  1  0  0  0  0
 35 94  1  0  0  0  0
 35 95  1  0  0  0  0
 36 37  1  0  0  0  0
 36 96  1  0  0  0  0
 36 97  1  0  0  0  0
 37 98  1  0  0  0  0
 37 99  1  0  0  0  0
 38102  1  0  0  0  0
 38103  1  0  0  0  0
 38104  1  0  0  0  0
 39 44  1  0  0  0  0
 39100  1  0  0  0  0
 39101  1  0  0  0  0
 40 41  1  0  0  0  0
 42105  1  0  0  0  0
 42106  1  0  0  0  0
 42107  1  0  0  0  0
 43 45  1  1  0  0  0
 43 46  1  0  0  0  0
 43108  1  0  0  0  0
 44 47  1  0  0  0  0
 44109  1  0  0  0  0
 45111  1  0  0  0  0
 45112  1  0  0  0  0
 45113  1  0  0  0  0
 46 48  2  0  0  0  0
 46114  1  0  0  0  0
 47 50  1  0  0  0  0
 47 51  2  0  0  0  0
 48 49  1  0  0  0  0
 48 54  1  0  0  0  0
 49 52  1  0  0  0  0
 49118  1  0  0  0  0
 50115  1  0  0  0  0
 50116  1  0  0  0  0
 50117  1  0  0  0  0
 51 57  1  0  0  0  0
 51119  1  0  0  0  0
 52 56  1  0  0  0  0
 52120  1  0  0  0  0
 53121  1  0  0  0  0
 53122  1  0  0  0  0
 53123  1  0  0  0  0
 54124  1  0  0  0  0
 54125  1  0  0  0  0
 54126  1  0  0  0  0
 55 56  1  0  0  0  0
 55 58  1  0  0  0  0
 55 60  1  1  0  0  0
 55127  1  0  0  0  0
 57 61  2  0  0  0  0
 57128  1  0  0  0  0
 58 59  1  0  0  0  0
 58129  1  0  0  0  0
 58130  1  0  0  0  0
 59 62  1  0  0  0  0
 59 63  1  6  0  0  0
 59132  1  0  0  0  0
 60133  1  0  0  0  0
 60134  1  0  0  0  0
 60135  1  0  0  0  0
 61 64  1  0  0  0  0
 61136  1  0  0  0  0
 62 64  2  0  0  0  0
 62137  1  0  0  0  0
 63138  1  0  0  0  0
 63139  1  0  0  0  0
 63140  1  0  0  0  0
 64141  1  0  0  0  0
 65142  1  0  0  0  0
 65143  1  0  0  0  0
 65144  1  0  0  0  0
M  END
> <PUBCHEM_COMPOUND_CID>
5284616

> <PUBCHEM_COMPOUND_CANONICALIZED>
1

> <PUBCHEM_CACTVS_COMPLEXITY>
1760

> <PUBCHEM_CACTVS_HBOND_ACCEPTOR>
13

> <PUBCHEM_CACTVS_HBOND_DONOR>
3

> <PUBCHEM_CACTVS_ROTATABLE_BOND>
6

> <PUBCHEM_CACTVS_SUBSKEYS>
AAADcfB+PAAAAAAAAAAAAAAAAAAAAAAAAAA8SIAAAAAAAAAAAAAAHgAACAAADTzhgAYCCAMABgCIAqHSGAIAAAAgAAAICAHIAAgbFBYAoSQHUAAH5gCfsAOY6PSOAAAAAAAAAABAAAIAAACAAAAAAAAAAA==

> <PUBCHEM_IUPAC_OPENEYE_NAME>
(1R,9S,12S,15R,16E,18R,19R,21R,23S,24E,26E,28E,30S,32S,35R)-1,18-dihydroxy-12-[(1R)-2-[(1S,3R,4R)-4-hydroxy-3-methoxy-cyclohexyl]-1-methyl-ethyl]-19,30-dimethoxy-15,17,21,23,29,35-hexamethyl-11,36-dioxa-4-azatricyclo[30.3.1.04,9]hexatriaconta-16,24,26,28-tetraene-2,3,10,14,20-pentone

> <PUBCHEM_IUPAC_CAS_NAME>
(1R,9S,12S,15R,16E,18R,19R,21R,23S,24E,26E,28E,30S,32S,35R)-1,18-dihydroxy-12-[(2R)-1-[(1S,3R,4R)-4-hydroxy-3-methoxycyclohexyl]propan-2-yl]-19,30-dimethoxy-15,17,21,23,29,35-hexamethyl-11,36-dioxa-4-azatricyclo[30.3.1.04,9]hexatriaconta-16,24,26,28-tetraene-2,3,10,14,20-pentone

> <PUBCHEM_IUPAC_NAME_MARKUP>
(1<I>R</I>,9<I>S</I>,12<I>S</I>,15<I>R</I>,16<I>E</I>,18<I>R</I>,19<I>R</I>,21<I>R</I>,23<I>S</I>,24<I>E</I>,26<I>E</I>,28<I>E</I>,30<I>S</I>,32<I>S</I>,35<I>R</I>)-1,18-dihydroxy-12-[(2<I>R</I>)-1-[(1<I>S</I>,3<I>R</I>,4<I>R</I>)-4-hydroxy-3-methoxycyclohexyl]propan-2-yl]-19,30-dimethoxy-15,17,21,23,29,35-hexamethyl-11,36-dioxa-4-azatricyclo[30.3.1.0<SUP>4,9</SUP>]hexatriaconta-16,24,26,28-tetraene-2,3,10,14,20-pentone

> <PUBCHEM_IUPAC_NAME>
(1R,9S,12S,15R,16E,18R,19R,21R,23S,24E,26E,28E,30S,32S,35R)-1,18-dihydroxy-12-[(2R)-1-[(1S,3R,4R)-4-hydroxy-3-methoxycyclohexyl]propan-2-yl]-19,30-dimethoxy-15,17,21,23,29,35-hexamethyl-11,36-dioxa-4-azatricyclo[30.3.1.04,9]hexatriaconta-16,24,26,28-tetraene-2,3,10,14,20-pentone

> <PUBCHEM_IUPAC_SYSTEMATIC_NAME>
(1R,9S,12S,15R,16E,18R,19R,21R,23S,24E,26E,28E,30S,32S,35R)-19,30-dimethoxy-12-[(2R)-1-[(1S,3R,4R)-3-methoxy-4-oxidanyl-cyclohexyl]propan-2-yl]-15,17,21,23,29,35-hexamethyl-1,18-bis(oxidanyl)-11,36-dioxa-4-azatricyclo[30.3.1.04,9]hexatriaconta-16,24,26,28-tetraene-2,3,10,14,20-pentone

> <PUBCHEM_IUPAC_TRADITIONAL_NAME>
(1R,9S,12S,15R,16E,18R,19R,21R,23S,24E,26E,28E,30S,32S,35R)-1,18-dihydroxy-12-[(1R)-2-[(1S,3R,4R)-4-hydroxy-3-methoxy-cyclohexyl]-1-methyl-ethyl]-19,30-dimethoxy-15,17,21,23,29,35-hexamethyl-11,36-dioxa-4-azatricyclo[30.3.1.04,9]hexatriaconta-16,24,26,28-tetraene-2,3,10,14,20-pentone

> <PUBCHEM_IUPAC_INCHI>
InChI=1S/C51H79NO13/c1-30-16-12-11-13-17-31(2)42(61-8)28-38-21-19-36(7)51(60,65-38)48(57)49(58)52-23-15-14-18-39(52)50(59)64-43(33(4)26-37-20-22-40(53)44(27-37)62-9)29-41(54)32(3)25-35(6)46(56)47(63-10)45(55)34(5)24-30/h11-13,16-17,25,30,32-34,36-40,42-44,46-47,53,56,60H,14-15,18-24,26-29H2,1-10H3/b13-11+,16-12+,31-17+,35-25+/t30-,32-,33-,34-,36-,37+,38+,39+,40-,42+,43+,44-,46-,47+,51-/m1/s1

> <PUBCHEM_IUPAC_INCHIKEY>
QFJCIRLUMZQUOT-HPLJOQBZSA-N

> <PUBCHEM_XLOGP3_AA>
6

> <PUBCHEM_EXACT_MASS>
913.555142

> <PUBCHEM_MOLECULAR_FORMULA>
C51H79NO13

> <PUBCHEM_MOLECULAR_WEIGHT>
914.2

> <PUBCHEM_OPENEYE_CAN_SMILES>
CC1CCC2CC(C(=CC=CC=CC(CC(C(=O)C(C(C(=CC(C(=O)CC(OC(=O)C3CCCCN3C(=O)C(=O)C1(O2)O)C(C)CC4CCC(C(C4)OC)O)C)C)O)OC)C)C)C)OC

> <PUBCHEM_OPENEYE_ISO_SMILES>
C[C@@H]1CC[C@H]2C[C@@H](/C(=C/C=C/C=C/[C@H](C[C@H](C(=O)[C@@H]([C@@H](/C(=C/[C@H](C(=O)C[C@H](OC(=O)[C@@H]3CCCCN3C(=O)C(=O)[C@@]1(O2)O)[C@H](C)C[C@@H]4CC[C@H]([C@@H](C4)OC)O)C)/C)O)OC)C)C)/C)OC

> <PUBCHEM_CACTVS_TPSA>
195

> <PUBCHEM_MONOISOTOPIC_WEIGHT>
913.555142

> <PUBCHEM_TOTAL_CHARGE>
0

> <PUBCHEM_HEAVY_ATOM_COUNT>
65

> <PUBCHEM_ATOM_DEF_STEREO_COUNT>
15

> <PUBCHEM_ATOM_UDEF_STEREO_COUNT>
0

> <PUBCHEM_BOND_DEF_STEREO_COUNT>
4

> <PUBCHEM_BOND_UDEF_STEREO_COUNT>
0

> <PUBCHEM_ISOTOPIC_ATOM_COUNT>
0

> <PUBCHEM_COMPONENT_COUNT>
1

> <PUBCHEM_CACTVS_TAUTO_COUNT>
-1

> <PUBCHEM_COORDINATE_TYPE>
1
5
255

> <PUBCHEM_BONDANNOTATIONS>
19  1  6
49  11  6
52  12  5
15  18  6
21  2  5
22  24  5
23  78  5
26  42  6
27  86  5
29  87  6
43  45  5
28  5  6
55  60  5
59  63  6
44  9  5

$$$$
