10830
 OpenBabel05262015012D

 56 58  0  0  1  0  0  0  0  0999 V2000
    2.2690    7.6200    0.0000 O   0  0  0  0  0  0  0  0  0  0  0  0
    4.8671    8.1200    0.0000 O   0  0  0  0  0  0  0  0  0  0  0  0
    3.1350    6.1200    0.0000 O   0  0  0  0  0  0  0  0  0  0  0  0
    6.5991    8.1200    0.0000 O   0  0  0  0  0  0  0  0  0  0  0  0
    4.0010    9.6200    0.0000 N   0  0  0  0  0  0  0  0  0  0  0  0
    1.4030    6.1200    0.0000 N   0  0  0  0  0  0  0  0  0  0  0  0
    5.7331    6.6200    0.0000 N   0  0  0  0  0  0  0  0  0  0  0  0
    4.8671    9.1200    0.0000 C   0  0  0  0  0  0  0  0  0  0  0  0
    4.0010   10.6200    0.0000 C   0  0  0  0  0  0  0  0  0  0  0  0
    5.7331    9.6200    0.0000 C   0  0  0  0  0  0  0  0  0  0  0  0
    4.8671   11.1200    0.0000 C   0  0  0  0  0  0  0  0  0  0  0  0
    5.7331   10.6200    0.0000 C   0  0  0  0  0  0  0  0  0  0  0  0
    3.1350    9.1200    0.0000 C   0  0  0  0  0  0  0  0  0  0  0  0
    3.1350    8.1200    0.0000 C   0  0  3  0  0  0  0  0  0  0  0  0
    4.0010    7.6200    0.0000 C   0  0  0  0  0  0  0  0  0  0  0  0
    2.2690    6.6200    0.0000 C   0  0  0  0  0  0  0  0  0  0  0  0
    5.7331    7.6200    0.0000 C   0  0  0  0  0  0  0  0  0  0  0  0
    1.4030    5.1200    0.0000 C   0  0  0  0  0  0  0  0  0  0  0  0
    6.5991    6.1200    0.0000 C   0  0  0  0  0  0  0  0  0  0  0  0
    0.5369    4.6200    0.0000 C   0  0  0  0  0  0  0  0  0  0  0  0
    2.2690    4.6200    0.0000 C   0  0  0  0  0  0  0  0  0  0  0  0
    7.4651    6.6200    0.0000 C   0  0  0  0  0  0  0  0  0  0  0  0
    6.5991    5.1200    0.0000 C   0  0  0  0  0  0  0  0  0  0  0  0
    0.5369    3.6200    0.0000 C   0  0  0  0  0  0  0  0  0  0  0  0
    2.2690    3.6200    0.0000 C   0  0  0  0  0  0  0  0  0  0  0  0
    1.4030    3.1200    0.0000 C   0  0  0  0  0  0  0  0  0  0  0  0
    8.3312    6.1200    0.0000 C   0  0  0  0  0  0  0  0  0  0  0  0
    7.4651    4.6200    0.0000 C   0  0  0  0  0  0  0  0  0  0  0  0
    8.3312    5.1200    0.0000 C   0  0  0  0  0  0  0  0  0  0  0  0
    4.4685    8.6450    0.0000 H   0  0  0  0  0  0  0  0  0  0  0  0
    5.2656    8.6450    0.0000 H   0  0  0  0  0  0  0  0  0  0  0  0
    3.7890   11.2026    0.0000 H   0  0  0  0  0  0  0  0  0  0  0  0
    3.3905   10.5123    0.0000 H   0  0  0  0  0  0  0  0  0  0  0  0
    5.9451    9.0374    0.0000 H   0  0  0  0  0  0  0  0  0  0  0  0
    6.3437    9.7277    0.0000 H   0  0  0  0  0  0  0  0  0  0  0  0
    5.2656   11.5949    0.0000 H   0  0  0  0  0  0  0  0  0  0  0  0
    4.4685   11.5949    0.0000 H   0  0  0  0  0  0  0  0  0  0  0  0
    6.3437   10.5123    0.0000 H   0  0  0  0  0  0  0  0  0  0  0  0
    5.9451   11.2026    0.0000 H   0  0  0  0  0  0  0  0  0  0  0  0
    2.9230    9.7026    0.0000 H   0  0  0  0  0  0  0  0  0  0  0  0
    2.5244    9.0123    0.0000 H   0  0  0  0  0  0  0  0  0  0  0  0
    3.1350    7.5000    0.0000 H   0  0  0  0  0  0  0  0  0  0  0  0
    3.6025    7.1450    0.0000 H   0  0  0  0  0  0  0  0  0  0  0  0
    4.3996    7.1450    0.0000 H   0  0  0  0  0  0  0  0  0  0  0  0
    0.8660    6.4300    0.0000 H   0  0  0  0  0  0  0  0  0  0  0  0
    5.1962    6.3100    0.0000 H   0  0  0  0  0  0  0  0  0  0  0  0
    0.0000    4.9300    0.0000 H   0  0  0  0  0  0  0  0  0  0  0  0
    2.8059    4.9300    0.0000 H   0  0  0  0  0  0  0  0  0  0  0  0
    7.4651    7.2400    0.0000 H   0  0  0  0  0  0  0  0  0  0  0  0
    6.0622    4.8100    0.0000 H   0  0  0  0  0  0  0  0  0  0  0  0
    0.0000    3.3100    0.0000 H   0  0  0  0  0  0  0  0  0  0  0  0
    2.8059    3.3100    0.0000 H   0  0  0  0  0  0  0  0  0  0  0  0
    1.4030    2.5000    0.0000 H   0  0  0  0  0  0  0  0  0  0  0  0
    8.8681    6.4300    0.0000 H   0  0  0  0  0  0  0  0  0  0  0  0
    7.4651    4.0000    0.0000 H   0  0  0  0  0  0  0  0  0  0  0  0
    8.8681    4.8100    0.0000 H   0  0  0  0  0  0  0  0  0  0  0  0
  1 14  1  0  0  0  0
  1 16  1  0  0  0  0
  2 15  1  0  0  0  0
  2 17  1  0  0  0  0
  3 16  2  0  0  0  0
  4 17  2  0  0  0  0
  5  8  1  0  0  0  0
  5  9  1  0  0  0  0
  5 13  1  0  0  0  0
  6 16  1  0  0  0  0
  6 18  1  0  0  0  0
  6 45  1  0  0  0  0
  7 17  1  0  0  0  0
  7 19  1  0  0  0  0
  7 46  1  0  0  0  0
  8 10  1  0  0  0  0
  8 30  1  0  0  0  0
  8 31  1  0  0  0  0
  9 11  1  0  0  0  0
  9 32  1  0  0  0  0
  9 33  1  0  0  0  0
 10 12  1  0  0  0  0
 10 34  1  0  0  0  0
 10 35  1  0  0  0  0
 11 12  1  0  0  0  0
 11 36  1  0  0  0  0
 11 37  1  0  0  0  0
 12 38  1  0  0  0  0
 12 39  1  0  0  0  0
 13 14  1  0  0  0  0
 13 40  1  0  0  0  0
 13 41  1  0  0  0  0
 14 15  1  0  0  0  0
 14 42  1  0  0  0  0
 15 43  1  0  0  0  0
 15 44  1  0  0  0  0
 18 20  2  0  0  0  0
 18 21  1  0  0  0  0
 19 22  2  0  0  0  0
 19 23  1  0  0  0  0
 20 24  1  0  0  0  0
 20 47  1  0  0  0  0
 21 25  2  0  0  0  0
 21 48  1  0  0  0  0
 22 27  1  0  0  0  0
 22 49  1  0  0  0  0
 23 28  2  0  0  0  0
 23 50  1  0  0  0  0
 24 26  2  0  0  0  0
 24 51  1  0  0  0  0
 25 26  1  0  0  0  0
 25 52  1  0  0  0  0
 26 53  1  0  0  0  0
 27 29  2  0  0  0  0
 27 54  1  0  0  0  0
 28 29  1  0  0  0  0
 28 55  1  0  0  0  0
 29 56  1  0  0  0  0
M  END
>  <PUBCHEM_COMPOUND_CID>
10830

>  <PUBCHEM_COMPOUND_CANONICALIZED>
1

>  <PUBCHEM_CACTVS_COMPLEXITY>
498

>  <PUBCHEM_CACTVS_HBOND_ACCEPTOR>
5

>  <PUBCHEM_CACTVS_HBOND_DONOR>
3

>  <PUBCHEM_CACTVS_ROTATABLE_BOND>
9

>  <PUBCHEM_CACTVS_SUBSKEYS>
AAADceB7OAAEAAAAAAAAAAAAAAAAAAAAAAA8YIAAAAAAAAABQAAAHgAQAAAACBzhkAYwyIPABACIACRCWACCAAAhAgAIiAAIZIkLICLAkZGNIAhilADayAcQAAAAAAAAAAAAAAAAAAAAAAAAAAAAAAAAAA==

>  <PUBCHEM_IUPAC_OPENEYE_NAME>
[2-(phenylcarbamoyloxy)-3-(1-piperidyl)propyl] N-phenylcarbamate;hydrochloride

>  <PUBCHEM_IUPAC_CAS_NAME>
N-phenylcarbamic acid [2-[anilino(oxo)methoxy]-3-(1-piperidinyl)propyl] ester;hydrochloride

>  <PUBCHEM_IUPAC_NAME_MARKUP>
[2-(phenylcarbamoyloxy)-3-piperidin-1-ylpropyl] <I>N</I>-phenylcarbamate;hydrochloride

>  <PUBCHEM_IUPAC_NAME>
[2-(phenylcarbamoyloxy)-3-piperidin-1-ylpropyl] N-phenylcarbamate;hydrochloride

>  <PUBCHEM_IUPAC_SYSTEMATIC_NAME>
[2-(phenylcarbamoyloxy)-3-piperidin-1-yl-propyl] N-phenylcarbamate;hydrochloride

>  <PUBCHEM_IUPAC_TRADITIONAL_NAME>
N-phenylcarbamic acid [2-(phenylcarbamoyloxy)-3-piperidino-propyl] ester;hydrochloride

>  <PUBCHEM_IUPAC_INCHI>
InChI=1S/C22H27N3O4.ClH/c26-21(23-18-10-4-1-5-11-18)28-17-20(16-25-14-8-3-9-15-25)29-22(27)24-19-12-6-2-7-13-19;/h1-2,4-7,10-13,20H,3,8-9,14-17H2,(H,23,26)(H,24,27);1H

>  <PUBCHEM_IUPAC_INCHIKEY>
OWULVAZDMWJBLB-UHFFFAOYSA-N

>  <PUBCHEM_EXACT_MASS>
433.176834

>  <PUBCHEM_MOLECULAR_FORMULA>
C22H28ClN3O4

>  <PUBCHEM_MOLECULAR_WEIGHT>
433.9

>  <PUBCHEM_OPENEYE_CAN_SMILES>
C1CCN(CC1)CC(COC(=O)NC2=CC=CC=C2)OC(=O)NC3=CC=CC=C3.Cl

>  <PUBCHEM_OPENEYE_ISO_SMILES>
C1CCN(CC1)CC(COC(=O)NC2=CC=CC=C2)OC(=O)NC3=CC=CC=C3.Cl

>  <PUBCHEM_CACTVS_TPSA>
79.9

>  <PUBCHEM_MONOISOTOPIC_WEIGHT>
433.176834

>  <PUBCHEM_TOTAL_CHARGE>
0

>  <PUBCHEM_HEAVY_ATOM_COUNT>
30

>  <PUBCHEM_ATOM_DEF_STEREO_COUNT>
0

>  <PUBCHEM_ATOM_UDEF_STEREO_COUNT>
1

>  <PUBCHEM_BOND_DEF_STEREO_COUNT>
0

>  <PUBCHEM_BOND_UDEF_STEREO_COUNT>
0

>  <PUBCHEM_ISOTOPIC_ATOM_COUNT>
0

>  <PUBCHEM_COMPONENT_COUNT>
2

>  <PUBCHEM_CACTVS_TAUTO_COUNT>
-1

>  <PUBCHEM_COORDINATE_TYPE>
1
5
255

>  <PUBCHEM_BONDANNOTATIONS>
15  14  3
19  21  8
19  22  8
20  23  8
20  24  8
21  25  8
22  26  8
23  28  8
24  29  8
25  27  8
26  27  8
28  30  8
29  30  8

$$$$
