6014
 OpenBabel05262015012D

 40 42  0  0  1  0  0  0  0  0999 V2000
    3.2018    3.2019    0.0000 S   0  0  0  0  0  0  0  0  0  0  0  0
    3.2018    5.2019    0.0000 N   0  0  0  0  0  0  0  0  0  0  0  0
    4.0678    7.7019    0.0000 N   0  0  0  0  0  0  0  0  0  0  0  0
    4.0678    6.7019    0.0000 C   0  0  3  0  0  0  0  0  0  0  0  0
    3.2018    6.2019    0.0000 C   0  0  0  0  0  0  0  0  0  0  0  0
    4.0678    4.7019    0.0000 C   0  0  0  0  0  0  0  0  0  0  0  0
    2.3358    4.7019    0.0000 C   0  0  0  0  0  0  0  0  0  0  0  0
    4.9338    6.2019    0.0000 C   0  0  0  0  0  0  0  0  0  0  0  0
    4.0678    3.7019    0.0000 C   0  0  0  0  0  0  0  0  0  0  0  0
    2.3358    3.7019    0.0000 C   0  0  0  0  0  0  0  0  0  0  0  0
    4.9338    8.2019    0.0000 C   0  0  0  0  0  0  0  0  0  0  0  0
    3.2018    8.2019    0.0000 C   0  0  0  0  0  0  0  0  0  0  0  0
    4.9617    5.2366    0.0000 C   0  0  0  0  0  0  0  0  0  0  0  0
    1.4418    5.2366    0.0000 C   0  0  0  0  0  0  0  0  0  0  0  0
    4.9617    3.1673    0.0000 C   0  0  0  0  0  0  0  0  0  0  0  0
    1.4418    3.1673    0.0000 C   0  0  0  0  0  0  0  0  0  0  0  0
    5.8678    4.7227    0.0000 C   0  0  0  0  0  0  0  0  0  0  0  0
    0.5357    4.7227    0.0000 C   0  0  0  0  0  0  0  0  0  0  0  0
    5.8678    3.6811    0.0000 C   0  0  0  0  0  0  0  0  0  0  0  0
    0.5357    3.6811    0.0000 C   0  0  0  0  0  0  0  0  0  0  0  0
    4.6047    7.0119    0.0000 H   0  0  0  0  0  0  0  0  0  0  0  0
    2.9897    6.7845    0.0000 H   0  0  0  0  0  0  0  0  0  0  0  0
    2.5912    6.0943    0.0000 H   0  0  0  0  0  0  0  0  0  0  0  0
    4.6238    5.6650    0.0000 H   0  0  0  0  0  0  0  0  0  0  0  0
    5.4708    5.8919    0.0000 H   0  0  0  0  0  0  0  0  0  0  0  0
    5.2438    6.7389    0.0000 H   0  0  0  0  0  0  0  0  0  0  0  0
    5.2438    7.6650    0.0000 H   0  0  0  0  0  0  0  0  0  0  0  0
    5.4708    8.5119    0.0000 H   0  0  0  0  0  0  0  0  0  0  0  0
    4.6238    8.7389    0.0000 H   0  0  0  0  0  0  0  0  0  0  0  0
    3.5118    8.7389    0.0000 H   0  0  0  0  0  0  0  0  0  0  0  0
    2.6648    8.5119    0.0000 H   0  0  0  0  0  0  0  0  0  0  0  0
    2.8918    7.6650    0.0000 H   0  0  0  0  0  0  0  0  0  0  0  0
    4.9546    5.8566    0.0000 H   0  0  0  0  0  0  0  0  0  0  0  0
    1.4490    5.8566    0.0000 H   0  0  0  0  0  0  0  0  0  0  0  0
    4.9546    2.5473    0.0000 H   0  0  0  0  0  0  0  0  0  0  0  0
    1.4490    2.5473    0.0000 H   0  0  0  0  0  0  0  0  0  0  0  0
    6.4035    5.0348    0.0000 H   0  0  0  0  0  0  0  0  0  0  0  0
    0.0000    5.0348    0.0000 H   0  0  0  0  0  0  0  0  0  0  0  0
    6.4035    3.3690    0.0000 H   0  0  0  0  0  0  0  0  0  0  0  0
    0.0000    3.3690    0.0000 H   0  0  0  0  0  0  0  0  0  0  0  0
  1  9  1  0  0  0  0
  1 10  1  0  0  0  0
  2  5  1  0  0  0  0
  2  6  1  0  0  0  0
  2  7  1  0  0  0  0
  3  4  1  0  0  0  0
  3 11  1  0  0  0  0
  3 12  1  0  0  0  0
  4  5  1  0  0  0  0
  4  8  1  0  0  0  0
  4 21  1  0  0  0  0
  5 22  1  0  0  0  0
  5 23  1  0  0  0  0
  6  9  1  0  0  0  0
  6 13  2  0  0  0  0
  7 10  1  0  0  0  0
  7 14  2  0  0  0  0
  8 24  1  0  0  0  0
  8 25  1  0  0  0  0
  8 26  1  0  0  0  0
  9 15  2  0  0  0  0
 10 16  2  0  0  0  0
 11 27  1  0  0  0  0
 11 28  1  0  0  0  0
 11 29  1  0  0  0  0
 12 30  1  0  0  0  0
 12 31  1  0  0  0  0
 12 32  1  0  0  0  0
 13 17  1  0  0  0  0
 13 33  1  0  0  0  0
 14 18  1  0  0  0  0
 14 34  1  0  0  0  0
 15 19  1  0  0  0  0
 15 35  1  0  0  0  0
 16 20  1  0  0  0  0
 16 36  1  0  0  0  0
 17 19  2  0  0  0  0
 17 37  1  0  0  0  0
 18 20  2  0  0  0  0
 18 38  1  0  0  0  0
 19 39  1  0  0  0  0
 20 40  1  0  0  0  0
M  END
>  <PUBCHEM_COMPOUND_CID>
6014

>  <PUBCHEM_COMPOUND_CANONICALIZED>
1

>  <PUBCHEM_CACTVS_COMPLEXITY>
298

>  <PUBCHEM_CACTVS_HBOND_ACCEPTOR>
3

>  <PUBCHEM_CACTVS_HBOND_DONOR>
1

>  <PUBCHEM_CACTVS_ROTATABLE_BOND>
3

>  <PUBCHEM_CACTVS_SUBSKEYS>
AAADceB7AABEAAAAAAAAAAAAAAAAAAAAAAA8YIAAAAAAAACxQAAAHAQAAAAACCjBUAQywYMAAAiAACRCQACCAAAhChAIiBwIZIgIYGLgkZGUIAhggADoyAcQAAAAAAAAAAAAAQAAAAAAAAACAAAAAAAAAA==

>  <PUBCHEM_IUPAC_OPENEYE_NAME>
N,N-dimethyl-1-phenothiazin-10-yl-propan-2-amine;hydrochloride

>  <PUBCHEM_IUPAC_CAS_NAME>
N,N-dimethyl-1-(10-phenothiazinyl)-2-propanamine;hydrochloride

>  <PUBCHEM_IUPAC_NAME_MARKUP>
<I>N</I>,<I>N</I>-dimethyl-1-phenothiazin-10-ylpropan-2-amine;hydrochloride

>  <PUBCHEM_IUPAC_NAME>
N,N-dimethyl-1-phenothiazin-10-ylpropan-2-amine;hydrochloride

>  <PUBCHEM_IUPAC_SYSTEMATIC_NAME>
N,N-dimethyl-1-phenothiazin-10-yl-propan-2-amine;hydrochloride

>  <PUBCHEM_IUPAC_TRADITIONAL_NAME>
dimethyl-(1-methyl-2-phenothiazin-10-yl-ethyl)amine;hydrochloride

>  <PUBCHEM_IUPAC_INCHI>
InChI=1S/C17H20N2S.ClH/c1-13(18(2)3)12-19-14-8-4-6-10-16(14)20-17-11-7-5-9-15(17)19;/h4-11,13H,12H2,1-3H3;1H

>  <PUBCHEM_IUPAC_INCHIKEY>
XXPDBLUZJRXNNZ-UHFFFAOYSA-N

>  <PUBCHEM_EXACT_MASS>
320.111398

>  <PUBCHEM_MOLECULAR_FORMULA>
C17H21ClN2S

>  <PUBCHEM_MOLECULAR_WEIGHT>
320.9

>  <PUBCHEM_OPENEYE_CAN_SMILES>
CC(CN1C2=CC=CC=C2SC3=CC=CC=C31)N(C)C.Cl

>  <PUBCHEM_OPENEYE_ISO_SMILES>
CC(CN1C2=CC=CC=C2SC3=CC=CC=C31)N(C)C.Cl

>  <PUBCHEM_CACTVS_TPSA>
31.8

>  <PUBCHEM_MONOISOTOPIC_WEIGHT>
320.111398

>  <PUBCHEM_TOTAL_CHARGE>
0

>  <PUBCHEM_HEAVY_ATOM_COUNT>
21

>  <PUBCHEM_ATOM_DEF_STEREO_COUNT>
0

>  <PUBCHEM_ATOM_UDEF_STEREO_COUNT>
1

>  <PUBCHEM_BOND_DEF_STEREO_COUNT>
0

>  <PUBCHEM_BOND_UDEF_STEREO_COUNT>
0

>  <PUBCHEM_ISOTOPIC_ATOM_COUNT>
0

>  <PUBCHEM_COMPONENT_COUNT>
2

>  <PUBCHEM_CACTVS_TAUTO_COUNT>
-1

>  <PUBCHEM_COORDINATE_TYPE>
1
5
255

>  <PUBCHEM_BONDANNOTATIONS>
10  16  8
11  17  8
14  18  8
15  19  8
16  20  8
17  21  8
18  20  8
19  21  8
5  9  3
7  10  8
7  14  8
8  11  8
8  15  8

$$$$
