65335
 OpenBabel05262015012D

 31 33  0  0  1  0  0  0  0  0999 V2000
    1.4030    3.6200    0.0000 Cl  0  0  0  0  0  0  0  0  0  0  0  0
    6.6793    0.8153    0.0000 S   0  0  0  0  0  0  0  0  0  0  0  0
    4.0010    2.1200    0.0000 N   0  0  0  0  0  0  0  0  0  0  0  0
    4.0010    1.1200    0.0000 C   0  0  0  0  0  0  0  0  0  0  0  0
    4.8671    2.6200    0.0000 C   0  0  0  0  0  0  0  0  0  0  0  0
    4.8671    0.6200    0.0000 C   0  0  0  0  0  0  0  0  0  0  0  0
    5.7331    2.1200    0.0000 C   0  0  0  0  0  0  0  0  0  0  0  0
    5.7331    1.1200    0.0000 C   0  0  0  0  0  0  0  0  0  0  0  0
    3.1350    2.6200    0.0000 C   0  0  0  0  0  0  0  0  0  0  0  0
    6.6793    2.4247    0.0000 C   0  0  0  0  0  0  0  0  0  0  0  0
    2.2690    2.1200    0.0000 C   0  0  0  0  0  0  0  0  0  0  0  0
    7.2629    1.6200    0.0000 C   0  0  0  0  0  0  0  0  0  0  0  0
    1.4030    2.6200    0.0000 C   0  0  0  0  0  0  0  0  0  0  0  0
    2.2690    1.1200    0.0000 C   0  0  0  0  0  0  0  0  0  0  0  0
    0.5369    2.1200    0.0000 C   0  0  0  0  0  0  0  0  0  0  0  0
    1.4030    0.6200    0.0000 C   0  0  0  0  0  0  0  0  0  0  0  0
    0.5369    1.1200    0.0000 C   0  0  0  0  0  0  0  0  0  0  0  0
    3.3905    1.2277    0.0000 H   0  0  0  0  0  0  0  0  0  0  0  0
    3.7890    0.5374    0.0000 H   0  0  0  0  0  0  0  0  0  0  0  0
    5.2656    3.0950    0.0000 H   0  0  0  0  0  0  0  0  0  0  0  0
    4.4685    3.0950    0.0000 H   0  0  0  0  0  0  0  0  0  0  0  0
    4.4685    0.1451    0.0000 H   0  0  0  0  0  0  0  0  0  0  0  0
    5.2656    0.1451    0.0000 H   0  0  0  0  0  0  0  0  0  0  0  0
    3.5335    3.0950    0.0000 H   0  0  0  0  0  0  0  0  0  0  0  0
    2.7365    3.0950    0.0000 H   0  0  0  0  0  0  0  0  0  0  0  0
    6.8719    3.0140    0.0000 H   0  0  0  0  0  0  0  0  0  0  0  0
    7.8829    1.6200    0.0000 H   0  0  0  0  0  0  0  0  0  0  0  0
    2.8059    0.8100    0.0000 H   0  0  0  0  0  0  0  0  0  0  0  0
    0.0000    2.4300    0.0000 H   0  0  0  0  0  0  0  0  0  0  0  0
    1.4030    0.0000    0.0000 H   0  0  0  0  0  0  0  0  0  0  0  0
    0.0000    0.8100    0.0000 H   0  0  0  0  0  0  0  0  0  0  0  0
  1 13  1  0  0  0  0
  2  8  1  0  0  0  0
  2 12  1  0  0  0  0
  3  4  1  0  0  0  0
  3  5  1  0  0  0  0
  3  9  1  0  0  0  0
  4  6  1  0  0  0  0
  4 18  1  0  0  0  0
  4 19  1  0  0  0  0
  5  7  1  0  0  0  0
  5 20  1  0  0  0  0
  5 21  1  0  0  0  0
  6  8  1  0  0  0  0
  6 22  1  0  0  0  0
  6 23  1  0  0  0  0
  7  8  2  0  0  0  0
  7 10  1  0  0  0  0
  9 11  1  0  0  0  0
  9 24  1  0  0  0  0
  9 25  1  0  0  0  0
 10 12  2  0  0  0  0
 10 26  1  0  0  0  0
 11 13  1  0  0  0  0
 11 14  2  0  0  0  0
 12 27  1  0  0  0  0
 13 15  2  0  0  0  0
 14 16  1  0  0  0  0
 14 28  1  0  0  0  0
 15 17  1  0  0  0  0
 15 29  1  0  0  0  0
 16 17  2  0  0  0  0
 16 30  1  0  0  0  0
 17 31  1  0  0  0  0
M  END
>  <PUBCHEM_COMPOUND_CID>
65335

>  <PUBCHEM_COMPOUND_CANONICALIZED>
1

>  <PUBCHEM_CACTVS_COMPLEXITY>
261

>  <PUBCHEM_CACTVS_HBOND_ACCEPTOR>
2

>  <PUBCHEM_CACTVS_HBOND_DONOR>
1

>  <PUBCHEM_CACTVS_ROTATABLE_BOND>
2

>  <PUBCHEM_CACTVS_SUBSKEYS>
AAADccByAABGAAAAAAAAAAAAAAAAASAAAAA8QAAAAAAAAFgBwAAAHAYAAAAADALFWCSwAYMAAAiEAiBCAACDAIAgDRBIiBgIBogIICKhkxGEIAhggACoiAcQgAAOAAAAAAABAAAAAAAAAAIAAAAAAAAAAA==

>  <PUBCHEM_IUPAC_OPENEYE_NAME>
5-[(2-chlorophenyl)methyl]-6,7-dihydro-4H-thieno[3,2-c]pyridine;hydrochloride

>  <PUBCHEM_IUPAC_CAS_NAME>
5-[(2-chlorophenyl)methyl]-6,7-dihydro-4H-thieno[3,2-c]pyridine;hydrochloride

>  <PUBCHEM_IUPAC_NAME_MARKUP>
5-[(2-chlorophenyl)methyl]-6,7-dihydro-4<I>H</I>-thieno[3,2-c]pyridine;hydrochloride

>  <PUBCHEM_IUPAC_NAME>
5-[(2-chlorophenyl)methyl]-6,7-dihydro-4H-thieno[3,2-c]pyridine;hydrochloride

>  <PUBCHEM_IUPAC_SYSTEMATIC_NAME>
5-[(2-chlorophenyl)methyl]-6,7-dihydro-4H-thieno[3,2-c]pyridine;hydrochloride

>  <PUBCHEM_IUPAC_TRADITIONAL_NAME>
5-(2-chlorobenzyl)-6,7-dihydro-4H-thieno[3,2-c]pyridine;hydrochloride

>  <PUBCHEM_IUPAC_INCHI>
InChI=1S/C14H14ClNS.ClH/c15-13-4-2-1-3-11(13)9-16-7-5-14-12(10-16)6-8-17-14;/h1-4,6,8H,5,7,9-10H2;1H

>  <PUBCHEM_IUPAC_INCHIKEY>
MTKNGOHFNXIVOS-UHFFFAOYSA-N

>  <PUBCHEM_EXACT_MASS>
299.030226

>  <PUBCHEM_MOLECULAR_FORMULA>
C14H15Cl2NS

>  <PUBCHEM_MOLECULAR_WEIGHT>
300.2

>  <PUBCHEM_OPENEYE_CAN_SMILES>
C1CN(CC2=C1SC=C2)CC3=CC=CC=C3Cl.Cl

>  <PUBCHEM_OPENEYE_ISO_SMILES>
C1CN(CC2=C1SC=C2)CC3=CC=CC=C3Cl.Cl

>  <PUBCHEM_CACTVS_TPSA>
31.5

>  <PUBCHEM_MONOISOTOPIC_WEIGHT>
299.030226

>  <PUBCHEM_TOTAL_CHARGE>
0

>  <PUBCHEM_HEAVY_ATOM_COUNT>
18

>  <PUBCHEM_ATOM_DEF_STEREO_COUNT>
0

>  <PUBCHEM_ATOM_UDEF_STEREO_COUNT>
0

>  <PUBCHEM_BOND_DEF_STEREO_COUNT>
0

>  <PUBCHEM_BOND_UDEF_STEREO_COUNT>
0

>  <PUBCHEM_ISOTOPIC_ATOM_COUNT>
0

>  <PUBCHEM_COMPONENT_COUNT>
2

>  <PUBCHEM_CACTVS_TAUTO_COUNT>
-1

>  <PUBCHEM_COORDINATE_TYPE>
1
5
255

>  <PUBCHEM_BONDANNOTATIONS>
11  13  8
12  14  8
12  15  8
14  16  8
15  17  8
16  18  8
17  18  8
3  13  8
3  9  8
8  11  8
8  9  8

$$$$
