66069
 OpenBabel05262015012D

 43 45  0  0  0  0  0  0  0  0999 V2000
    3.2018    3.1947    0.0000 S   0  0  0  0  0  0  0  0  0  0  0  0
    7.5960    5.7221    0.0000 F   0  0  0  0  0  0  0  0  0  0  0  0
    7.2352    4.3547    0.0000 F   0  0  0  0  0  0  0  0  0  0  0  0
    6.2286    6.0829    0.0000 F   0  0  0  0  0  0  0  0  0  0  0  0
    3.2018    5.1946    0.0000 N   0  0  0  0  0  0  0  0  0  0  0  0
    1.4697    8.1946    0.0000 N   0  0  0  0  0  0  0  0  0  0  0  0
    3.2018    6.1946    0.0000 C   0  0  0  0  0  0  0  0  0  0  0  0
    2.3358    6.6946    0.0000 C   0  0  0  0  0  0  0  0  0  0  0  0
    4.0678    4.6946    0.0000 C   0  0  0  0  0  0  0  0  0  0  0  0
    2.3358    4.6946    0.0000 C   0  0  0  0  0  0  0  0  0  0  0  0
    2.3358    7.6946    0.0000 C   0  0  0  0  0  0  0  0  0  0  0  0
    4.0678    3.6946    0.0000 C   0  0  0  0  0  0  0  0  0  0  0  0
    2.3358    3.6946    0.0000 C   0  0  0  0  0  0  0  0  0  0  0  0
    4.9617    5.2293    0.0000 C   0  0  0  0  0  0  0  0  0  0  0  0
    1.4418    5.2293    0.0000 C   0  0  0  0  0  0  0  0  0  0  0  0
    5.8678    4.7155    0.0000 C   0  0  0  0  0  0  0  0  0  0  0  0
    4.9617    3.1600    0.0000 C   0  0  0  0  0  0  0  0  0  0  0  0
    1.4418    3.1600    0.0000 C   0  0  0  0  0  0  0  0  0  0  0  0
    5.8678    3.6738    0.0000 C   0  0  0  0  0  0  0  0  0  0  0  0
    0.5357    4.7155    0.0000 C   0  0  0  0  0  0  0  0  0  0  0  0
    1.4697    9.1946    0.0000 C   0  0  0  0  0  0  0  0  0  0  0  0
    0.6037    7.6946    0.0000 C   0  0  0  0  0  0  0  0  0  0  0  0
    0.5357    3.6738    0.0000 C   0  0  0  0  0  0  0  0  0  0  0  0
    6.7319    5.2188    0.0000 C   0  0  0  0  0  0  0  0  0  0  0  0
    3.8124    6.0870    0.0000 H   0  0  0  0  0  0  0  0  0  0  0  0
    3.4138    6.7773    0.0000 H   0  0  0  0  0  0  0  0  0  0  0  0
    1.7252    6.8023    0.0000 H   0  0  0  0  0  0  0  0  0  0  0  0
    2.1237    6.1120    0.0000 H   0  0  0  0  0  0  0  0  0  0  0  0
    2.9463    7.5870    0.0000 H   0  0  0  0  0  0  0  0  0  0  0  0
    2.5478    8.2773    0.0000 H   0  0  0  0  0  0  0  0  0  0  0  0
    4.9546    5.8493    0.0000 H   0  0  0  0  0  0  0  0  0  0  0  0
    1.4490    5.8493    0.0000 H   0  0  0  0  0  0  0  0  0  0  0  0
    4.9546    2.5400    0.0000 H   0  0  0  0  0  0  0  0  0  0  0  0
    1.4490    2.5400    0.0000 H   0  0  0  0  0  0  0  0  0  0  0  0
    6.4035    3.3618    0.0000 H   0  0  0  0  0  0  0  0  0  0  0  0
    0.0000    5.0275    0.0000 H   0  0  0  0  0  0  0  0  0  0  0  0
    2.0897    9.1946    0.0000 H   0  0  0  0  0  0  0  0  0  0  0  0
    1.4697    9.8146    0.0000 H   0  0  0  0  0  0  0  0  0  0  0  0
    0.8497    9.1946    0.0000 H   0  0  0  0  0  0  0  0  0  0  0  0
    0.2937    8.2316    0.0000 H   0  0  0  0  0  0  0  0  0  0  0  0
    0.0668    7.3846    0.0000 H   0  0  0  0  0  0  0  0  0  0  0  0
    0.9137    7.1577    0.0000 H   0  0  0  0  0  0  0  0  0  0  0  0
    0.0000    3.3618    0.0000 H   0  0  0  0  0  0  0  0  0  0  0  0
  1 12  1  0  0  0  0
  1 13  1  0  0  0  0
  2 24  1  0  0  0  0
  3 24  1  0  0  0  0
  4 24  1  0  0  0  0
  5  7  1  0  0  0  0
  5  9  1  0  0  0  0
  5 10  1  0  0  0  0
  6 11  1  0  0  0  0
  6 21  1  0  0  0  0
  6 22  1  0  0  0  0
  7  8  1  0  0  0  0
  7 25  1  0  0  0  0
  7 26  1  0  0  0  0
  8 11  1  0  0  0  0
  8 27  1  0  0  0  0
  8 28  1  0  0  0  0
  9 12  2  0  0  0  0
  9 14  1  0  0  0  0
 10 13  1  0  0  0  0
 10 15  2  0  0  0  0
 11 29  1  0  0  0  0
 11 30  1  0  0  0  0
 12 17  1  0  0  0  0
 13 18  2  0  0  0  0
 14 16  2  0  0  0  0
 14 31  1  0  0  0  0
 15 20  1  0  0  0  0
 15 32  1  0  0  0  0
 16 19  1  0  0  0  0
 16 24  1  0  0  0  0
 17 19  2  0  0  0  0
 17 33  1  0  0  0  0
 18 23  1  0  0  0  0
 18 34  1  0  0  0  0
 19 35  1  0  0  0  0
 20 23  2  0  0  0  0
 20 36  1  0  0  0  0
 21 37  1  0  0  0  0
 21 38  1  0  0  0  0
 21 39  1  0  0  0  0
 22 40  1  0  0  0  0
 22 41  1  0  0  0  0
 22 42  1  0  0  0  0
 23 43  1  0  0  0  0
M  END
>  <PUBCHEM_COMPOUND_CID>
66069

>  <PUBCHEM_COMPOUND_CANONICALIZED>
1

>  <PUBCHEM_CACTVS_COMPLEXITY>
416

>  <PUBCHEM_CACTVS_HBOND_ACCEPTOR>
6

>  <PUBCHEM_CACTVS_HBOND_DONOR>
1

>  <PUBCHEM_CACTVS_ROTATABLE_BOND>
4

>  <PUBCHEM_CACTVS_SUBSKEYS>
AAADceB7AYBEAAAAAAAAAAAAAAAAAAAAAAA8YIAAAAAAAACxQAAAHQQAAAAADAjBWBQywYMAAAiAAiRCQACCAAAhChAIiBwIZIgIIGLg0ZGEIAhggADoyAcQgAAOEAAAQAAAAQAgAACAAAACAAAAAAAAAA==

>  <PUBCHEM_IUPAC_OPENEYE_NAME>
N,N-dimethyl-3-[2-(trifluoromethyl)phenothiazin-10-yl]propan-1-amine;hydrochloride

>  <PUBCHEM_IUPAC_CAS_NAME>
N,N-dimethyl-3-[2-(trifluoromethyl)-10-phenothiazinyl]-1-propanamine;hydrochloride

>  <PUBCHEM_IUPAC_NAME_MARKUP>
<I>N</I>,<I>N</I>-dimethyl-3-[2-(trifluoromethyl)phenothiazin-10-yl]propan-1-amine;hydrochloride

>  <PUBCHEM_IUPAC_NAME>
N,N-dimethyl-3-[2-(trifluoromethyl)phenothiazin-10-yl]propan-1-amine;hydrochloride

>  <PUBCHEM_IUPAC_SYSTEMATIC_NAME>
N,N-dimethyl-3-[2-(trifluoromethyl)phenothiazin-10-yl]propan-1-amine;hydrochloride

>  <PUBCHEM_IUPAC_TRADITIONAL_NAME>
dimethyl-[3-[2-(trifluoromethyl)phenothiazin-10-yl]propyl]amine;hydrochloride

>  <PUBCHEM_IUPAC_INCHI>
InChI=1S/C18H19F3N2S.ClH/c1-22(2)10-5-11-23-14-6-3-4-7-16(14)24-17-9-8-13(12-15(17)23)18(19,20)21;/h3-4,6-9,12H,5,10-11H2,1-2H3;1H

>  <PUBCHEM_IUPAC_INCHIKEY>
FTNWXGFYRHWUKG-UHFFFAOYSA-N

>  <PUBCHEM_EXACT_MASS>
388.098782

>  <PUBCHEM_MOLECULAR_FORMULA>
C18H20ClF3N2S

>  <PUBCHEM_MOLECULAR_WEIGHT>
388.9

>  <PUBCHEM_OPENEYE_CAN_SMILES>
CN(C)CCCN1C2=CC=CC=C2SC3=C1C=C(C=C3)C(F)(F)F.Cl

>  <PUBCHEM_OPENEYE_ISO_SMILES>
CN(C)CCCN1C2=CC=CC=C2SC3=C1C=C(C=C3)C(F)(F)F.Cl

>  <PUBCHEM_CACTVS_TPSA>
31.8

>  <PUBCHEM_MONOISOTOPIC_WEIGHT>
388.098782

>  <PUBCHEM_TOTAL_CHARGE>
0

>  <PUBCHEM_HEAVY_ATOM_COUNT>
25

>  <PUBCHEM_ATOM_DEF_STEREO_COUNT>
0

>  <PUBCHEM_ATOM_UDEF_STEREO_COUNT>
0

>  <PUBCHEM_BOND_DEF_STEREO_COUNT>
0

>  <PUBCHEM_BOND_UDEF_STEREO_COUNT>
0

>  <PUBCHEM_ISOTOPIC_ATOM_COUNT>
0

>  <PUBCHEM_COMPONENT_COUNT>
2

>  <PUBCHEM_CACTVS_TAUTO_COUNT>
-1

>  <PUBCHEM_COORDINATE_TYPE>
1
5
255

>  <PUBCHEM_BONDANNOTATIONS>
10  13  8
10  15  8
11  14  8
11  16  8
13  18  8
14  19  8
15  17  8
16  21  8
17  20  8
18  20  8
19  24  8
21  24  8

$$$$
